
*** ChampSim Multicore Out-of-Order Simulator ***

Warmup Instructions: 200000000
Simulation Instructions: 200000000
Number of CPUs: 8
threads:1

L1I Configuration:
L1I_SET:64
L1I_WAY:8
L1I_RQ_SIZE:64
L1I_WQ_SIZE:64
L1I_PQ_SIZE:8
L1I_MSHR_SIZE:8

L1D Configuration:
L1D_SET:64
L1D_WAY:12
L1D_RQ_SIZE:64
L1D_WQ_SIZE:64
L1D_PQ_SIZE:8
L1D_MSHR_SIZE:16

L2C Configuration:
L2C_SET:1024
L2C_WAY:8
L2C_RQ_SIZE:32
L2C_WQ_SIZE:32
L2C_PQ_SIZE:16
L2C_MSHR_SIZE:32

LLC Configuration:
LLC_SET:2048
LLC_WAY:12
LLC SLICES:8
LLC_RQ_SIZE:64
LLC_WQ_SIZE:64
LLC_PQ_SIZE:32
LLC_MSHR_SIZE:64

Interconnect OFF
Attacker deprioritize is: OFF
Off-chip DRAM Size: 8192 MB Channels: 2 Width: 64-bit Data Rate: 3200 MT/s
PAGE SIZE in KB: 4.000000 
PAGE SIZE in MB: 0.003906 
PAGE offset in bits: 12 
CEASER-S_LLC:0
MIRAGE : 1
CEASER_LATENCY:3
REMAP : OFF
Partitions : 1
Multi-Step : OFF
BFS : OFF

CPU 0 runs /home/anubhav/gap/sssp-5.trace.gz
CPU 1 runs /home/anubhav/gap/sssp-5.trace.gz
CPU 2 runs /home/anubhav/gap/sssp-5.trace.gz
CPU 3 runs /home/anubhav/gap/sssp-5.trace.gz
CPU 4 runs /home/anubhav/gap/sssp-5.trace.gz
CPU 5 runs /home/anubhav/gap/sssp-5.trace.gz
CPU 6 runs /home/anubhav/gap/sssp-5.trace.gz
CPU 7 runs /home/anubhav/gap/sssp-5.trace.gz
CPU 0 Bimodal branch predictor
Initialize Hawkeye state
Initialize Hawkeye state
Initialize Hawkeye state
Initialize Hawkeye state
Initialize Hawkeye state
Initialize Hawkeye state
Initialize Hawkeye state
Initialize Hawkeye state
CPU 1 Bimodal branch predictor
Initialize Hawkeye state
Initialize Hawkeye state
Initialize Hawkeye state
Initialize Hawkeye state
Initialize Hawkeye state
Initialize Hawkeye state
Initialize Hawkeye state
Initialize Hawkeye state
CPU 2 Bimodal branch predictor
Initialize Hawkeye state
Initialize Hawkeye state
Initialize Hawkeye state
Initialize Hawkeye state
Initialize Hawkeye state
Initialize Hawkeye state
Initialize Hawkeye state
Initialize Hawkeye state
CPU 3 Bimodal branch predictor
Initialize Hawkeye state
Initialize Hawkeye state
Initialize Hawkeye state
Initialize Hawkeye state
Initialize Hawkeye state
Initialize Hawkeye state
Initialize Hawkeye state
Initialize Hawkeye state
CPU 4 Bimodal branch predictor
Initialize Hawkeye state
Initialize Hawkeye state
Initialize Hawkeye state
Initialize Hawkeye state
Initialize Hawkeye state
Initialize Hawkeye state
Initialize Hawkeye state
Initialize Hawkeye state
CPU 5 Bimodal branch predictor
Initialize Hawkeye state
Initialize Hawkeye state
Initialize Hawkeye state
Initialize Hawkeye state
Initialize Hawkeye state
Initialize Hawkeye state
Initialize Hawkeye state
Initialize Hawkeye state
CPU 6 Bimodal branch predictor
Initialize Hawkeye state
Initialize Hawkeye state
Initialize Hawkeye state
Initialize Hawkeye state
Initialize Hawkeye state
Initialize Hawkeye state
Initialize Hawkeye state
Initialize Hawkeye state
CPU 7 Bimodal branch predictor
Initialize Hawkeye state
Initialize Hawkeye state
Initialize Hawkeye state
Initialize Hawkeye state
Initialize Hawkeye state
Initialize Hawkeye state
Initialize Hawkeye state
Initialize Hawkeye state
FILL
Heartbeat CPU 0 instructions: 10000000 cycles: 7197867 heartbeat IPC: 1.3893 cumulative IPC: 1.3893 (Simulation time: 0 hr 32 min 29 sec) 
 Total Blocks : 196608 Invalid Blocks : 108 Valid Blocks : 196500
 Total Tags : 491520 Threshold : 12288 Invalid Tags : 196720 Pr0 Tags : 98300 Pr1 Tags : 196500 num_pr0 : 12288
 SAE Count : 0
 Inter-Core Inteference in Data Store : 1117399
Heartbeat CPU 3 instructions: 10000000 cycles: 7199004 heartbeat IPC: 1.38908 cumulative IPC: 1.38908 (Simulation time: 0 hr 32 min 30 sec) 
 Total Blocks : 196608 Invalid Blocks : 108 Valid Blocks : 196500
 Total Tags : 491520 Threshold : 12288 Invalid Tags : 196720 Pr0 Tags : 98300 Pr1 Tags : 196500 num_pr0 : 12288
 SAE Count : 0
 Inter-Core Inteference in Data Store : 1117564
Heartbeat CPU 4 instructions: 10000000 cycles: 7199402 heartbeat IPC: 1.389 cumulative IPC: 1.389 (Simulation time: 0 hr 32 min 30 sec) 
 Total Blocks : 196608 Invalid Blocks : 108 Valid Blocks : 196500
 Total Tags : 491520 Threshold : 12288 Invalid Tags : 196717 Pr0 Tags : 98303 Pr1 Tags : 196500 num_pr0 : 12288
 SAE Count : 0
 Inter-Core Inteference in Data Store : 1117612
Heartbeat CPU 2 instructions: 10000000 cycles: 7199556 heartbeat IPC: 1.38897 cumulative IPC: 1.38897 (Simulation time: 0 hr 32 min 30 sec) 
 Total Blocks : 196608 Invalid Blocks : 108 Valid Blocks : 196500
 Total Tags : 491520 Threshold : 12288 Invalid Tags : 196718 Pr0 Tags : 98302 Pr1 Tags : 196500 num_pr0 : 12288
 SAE Count : 0
 Inter-Core Inteference in Data Store : 1117628
Heartbeat CPU 7 instructions: 10000000 cycles: 7199590 heartbeat IPC: 1.38897 cumulative IPC: 1.38897 (Simulation time: 0 hr 32 min 30 sec) 
 Total Blocks : 196608 Invalid Blocks : 108 Valid Blocks : 196500
 Total Tags : 491520 Threshold : 12288 Invalid Tags : 196716 Pr0 Tags : 98304 Pr1 Tags : 196500 num_pr0 : 12288
 SAE Count : 0
 Inter-Core Inteference in Data Store : 1117630
Heartbeat CPU 5 instructions: 10000000 cycles: 7199600 heartbeat IPC: 1.38897 cumulative IPC: 1.38897 (Simulation time: 0 hr 32 min 30 sec) 
 Total Blocks : 196608 Invalid Blocks : 108 Valid Blocks : 196500
 Total Tags : 491520 Threshold : 12288 Invalid Tags : 196717 Pr0 Tags : 98303 Pr1 Tags : 196500 num_pr0 : 12288
 SAE Count : 0
 Inter-Core Inteference in Data Store : 1117633
Heartbeat CPU 1 instructions: 10000000 cycles: 7199691 heartbeat IPC: 1.38895 cumulative IPC: 1.38895 (Simulation time: 0 hr 32 min 30 sec) 
 Total Blocks : 196608 Invalid Blocks : 108 Valid Blocks : 196500
 Total Tags : 491520 Threshold : 12288 Invalid Tags : 196721 Pr0 Tags : 98299 Pr1 Tags : 196500 num_pr0 : 12288
 SAE Count : 0
 Inter-Core Inteference in Data Store : 1117647
Heartbeat CPU 6 instructions: 10000000 cycles: 7199745 heartbeat IPC: 1.38894 cumulative IPC: 1.38894 (Simulation time: 0 hr 32 min 30 sec) 
 Total Blocks : 196608 Invalid Blocks : 108 Valid Blocks : 196500
 Total Tags : 491520 Threshold : 12288 Invalid Tags : 196720 Pr0 Tags : 98300 Pr1 Tags : 196500 num_pr0 : 12287
 SAE Count : 0
 Inter-Core Inteference in Data Store : 1117653
Heartbeat CPU 0 instructions: 20000003 cycles: 15486361 heartbeat IPC: 1.20649 cumulative IPC: 1.29146 (Simulation time: 1 hr 14 min 42 sec) 
 Total Blocks : 196608 Invalid Blocks : 0 Valid Blocks : 196608
 Total Tags : 491520 Threshold : 12288 Invalid Tags : 196608 Pr0 Tags : 98304 Pr1 Tags : 196608 num_pr0 : 12288
 SAE Count : 0
 Inter-Core Inteference in Data Store : 3152824
Heartbeat CPU 3 instructions: 20000003 cycles: 15492279 heartbeat IPC: 1.2058 cumulative IPC: 1.29097 (Simulation time: 1 hr 14 min 44 sec) 
 Total Blocks : 196608 Invalid Blocks : 0 Valid Blocks : 196608
 Total Tags : 491520 Threshold : 12288 Invalid Tags : 196608 Pr0 Tags : 98304 Pr1 Tags : 196608 num_pr0 : 12288
 SAE Count : 0
 Inter-Core Inteference in Data Store : 3153840
Heartbeat CPU 4 instructions: 20000003 cycles: 15495916 heartbeat IPC: 1.20533 cumulative IPC: 1.29066 (Simulation time: 1 hr 14 min 45 sec) 
 Total Blocks : 196608 Invalid Blocks : 0 Valid Blocks : 196608
 Total Tags : 491520 Threshold : 12288 Invalid Tags : 196609 Pr0 Tags : 98303 Pr1 Tags : 196608 num_pr0 : 12287
 SAE Count : 0
 Inter-Core Inteference in Data Store : 3154436
Heartbeat CPU 2 instructions: 20000003 cycles: 15496932 heartbeat IPC: 1.2052 cumulative IPC: 1.29058 (Simulation time: 1 hr 14 min 46 sec) 
 Total Blocks : 196608 Invalid Blocks : 0 Valid Blocks : 196608
 Total Tags : 491520 Threshold : 12288 Invalid Tags : 196608 Pr0 Tags : 98304 Pr1 Tags : 196608 num_pr0 : 12288
 SAE Count : 0
 Inter-Core Inteference in Data Store : 3154619
Heartbeat CPU 5 instructions: 20000003 cycles: 15496937 heartbeat IPC: 1.20521 cumulative IPC: 1.29058 (Simulation time: 1 hr 14 min 46 sec) 
 Total Blocks : 196608 Invalid Blocks : 0 Valid Blocks : 196608
 Total Tags : 491520 Threshold : 12288 Invalid Tags : 196608 Pr0 Tags : 98304 Pr1 Tags : 196608 num_pr0 : 12288
 SAE Count : 0
 Inter-Core Inteference in Data Store : 3154620
Heartbeat CPU 1 instructions: 20000003 cycles: 15497742 heartbeat IPC: 1.2051 cumulative IPC: 1.29051 (Simulation time: 1 hr 14 min 47 sec) 
 Total Blocks : 196608 Invalid Blocks : 0 Valid Blocks : 196608
 Total Tags : 491520 Threshold : 12288 Invalid Tags : 196608 Pr0 Tags : 98304 Pr1 Tags : 196608 num_pr0 : 12288
 SAE Count : 0
 Inter-Core Inteference in Data Store : 3154755
Heartbeat CPU 7 instructions: 20000003 cycles: 15498533 heartbeat IPC: 1.20497 cumulative IPC: 1.29044 (Simulation time: 1 hr 14 min 47 sec) 
 Total Blocks : 196608 Invalid Blocks : 0 Valid Blocks : 196608
 Total Tags : 491520 Threshold : 12288 Invalid Tags : 196608 Pr0 Tags : 98304 Pr1 Tags : 196608 num_pr0 : 12288
 SAE Count : 0
 Inter-Core Inteference in Data Store : 3154878
Heartbeat CPU 6 instructions: 20000003 cycles: 15499538 heartbeat IPC: 1.20485 cumulative IPC: 1.29036 (Simulation time: 1 hr 14 min 47 sec) 
 Total Blocks : 196608 Invalid Blocks : 0 Valid Blocks : 196608
 Total Tags : 491520 Threshold : 12288 Invalid Tags : 196608 Pr0 Tags : 98304 Pr1 Tags : 196608 num_pr0 : 12288
 SAE Count : 0
 Inter-Core Inteference in Data Store : 3155021
Heartbeat CPU 0 instructions: 30000002 cycles: 23116652 heartbeat IPC: 1.31057 cumulative IPC: 1.29777 (Simulation time: 2 hr 2 min 4 sec) 
 Total Blocks : 196608 Invalid Blocks : 0 Valid Blocks : 196608
 Total Tags : 491520 Threshold : 12288 Invalid Tags : 196608 Pr0 Tags : 98304 Pr1 Tags : 196608 num_pr0 : 12288
 SAE Count : 0
 Inter-Core Inteference in Data Store : 5478394
Heartbeat CPU 3 instructions: 30000002 cycles: 23123582 heartbeat IPC: 1.31039 cumulative IPC: 1.29738 (Simulation time: 2 hr 2 min 7 sec) 
 Total Blocks : 196608 Invalid Blocks : 0 Valid Blocks : 196608
 Total Tags : 491520 Threshold : 12288 Invalid Tags : 196608 Pr0 Tags : 98304 Pr1 Tags : 196608 num_pr0 : 12288
 SAE Count : 0
 Inter-Core Inteference in Data Store : 5481595
Heartbeat CPU 4 instructions: 30000002 cycles: 23133759 heartbeat IPC: 1.30927 cumulative IPC: 1.29681 (Simulation time: 2 hr 2 min 13 sec) 
 Total Blocks : 196608 Invalid Blocks : 0 Valid Blocks : 196608
 Total Tags : 491520 Threshold : 12288 Invalid Tags : 196608 Pr0 Tags : 98304 Pr1 Tags : 196608 num_pr0 : 12288
 SAE Count : 0
 Inter-Core Inteference in Data Store : 5486273
Heartbeat CPU 2 instructions: 30000002 cycles: 23133822 heartbeat IPC: 1.30943 cumulative IPC: 1.2968 (Simulation time: 2 hr 2 min 13 sec) 
 Total Blocks : 196608 Invalid Blocks : 0 Valid Blocks : 196608
 Total Tags : 491520 Threshold : 12288 Invalid Tags : 196608 Pr0 Tags : 98304 Pr1 Tags : 196608 num_pr0 : 12288
 SAE Count : 0
 Inter-Core Inteference in Data Store : 5486308
Heartbeat CPU 5 instructions: 30000002 cycles: 23133878 heartbeat IPC: 1.30942 cumulative IPC: 1.2968 (Simulation time: 2 hr 2 min 13 sec) 
 Total Blocks : 196608 Invalid Blocks : 0 Valid Blocks : 196608
 Total Tags : 491520 Threshold : 12288 Invalid Tags : 196608 Pr0 Tags : 98304 Pr1 Tags : 196608 num_pr0 : 12288
 SAE Count : 0
 Inter-Core Inteference in Data Store : 5486327
Heartbeat CPU 1 instructions: 30000002 cycles: 23134253 heartbeat IPC: 1.3095 cumulative IPC: 1.29678 (Simulation time: 2 hr 2 min 13 sec) 
 Total Blocks : 196608 Invalid Blocks : 0 Valid Blocks : 196608
 Total Tags : 491520 Threshold : 12288 Invalid Tags : 196608 Pr0 Tags : 98304 Pr1 Tags : 196608 num_pr0 : 12288
 SAE Count : 0
 Inter-Core Inteference in Data Store : 5486497
Heartbeat CPU 7 instructions: 30000002 cycles: 23139674 heartbeat IPC: 1.3087 cumulative IPC: 1.29647 (Simulation time: 2 hr 2 min 15 sec) 
 Total Blocks : 196608 Invalid Blocks : 0 Valid Blocks : 196608
 Total Tags : 491520 Threshold : 12288 Invalid Tags : 196608 Pr0 Tags : 98304 Pr1 Tags : 196608 num_pr0 : 12288
 SAE Count : 0
 Inter-Core Inteference in Data Store : 5488610
Heartbeat CPU 6 instructions: 30000002 cycles: 23140371 heartbeat IPC: 1.30876 cumulative IPC: 1.29644 (Simulation time: 2 hr 2 min 15 sec) 
 Total Blocks : 196608 Invalid Blocks : 0 Valid Blocks : 196608
 Total Tags : 491520 Threshold : 12288 Invalid Tags : 196608 Pr0 Tags : 98304 Pr1 Tags : 196608 num_pr0 : 12288
 SAE Count : 0
 Inter-Core Inteference in Data Store : 5488921
Heartbeat CPU 0 instructions: 40000003 cycles: 30210753 heartbeat IPC: 1.40962 cumulative IPC: 1.32403 (Simulation time: 2 hr 54 min 11 sec) 
 Total Blocks : 196608 Invalid Blocks : 0 Valid Blocks : 196608
 Total Tags : 491520 Threshold : 12288 Invalid Tags : 196608 Pr0 Tags : 98304 Pr1 Tags : 196608 num_pr0 : 12288
 SAE Count : 0
 Inter-Core Inteference in Data Store : 7943395
Heartbeat CPU 3 instructions: 40000003 cycles: 30216716 heartbeat IPC: 1.40981 cumulative IPC: 1.32377 (Simulation time: 2 hr 54 min 12 sec) 
 Total Blocks : 196608 Invalid Blocks : 0 Valid Blocks : 196608
 Total Tags : 491520 Threshold : 12288 Invalid Tags : 196609 Pr0 Tags : 98303 Pr1 Tags : 196608 num_pr0 : 12288
 SAE Count : 0
 Inter-Core Inteference in Data Store : 7944188
Heartbeat CPU 2 instructions: 40000003 cycles: 30232434 heartbeat IPC: 1.40873 cumulative IPC: 1.32308 (Simulation time: 2 hr 54 min 17 sec) 
 Total Blocks : 196608 Invalid Blocks : 0 Valid Blocks : 196608
 Total Tags : 491520 Threshold : 12288 Invalid Tags : 196608 Pr0 Tags : 98304 Pr1 Tags : 196608 num_pr0 : 12288
 SAE Count : 0
 Inter-Core Inteference in Data Store : 7946441
Heartbeat CPU 1 instructions: 40000003 cycles: 30233426 heartbeat IPC: 1.40861 cumulative IPC: 1.32304 (Simulation time: 2 hr 54 min 17 sec) 
 Total Blocks : 196608 Invalid Blocks : 0 Valid Blocks : 196608
 Total Tags : 491520 Threshold : 12288 Invalid Tags : 196608 Pr0 Tags : 98304 Pr1 Tags : 196608 num_pr0 : 12288
 SAE Count : 0
 Inter-Core Inteference in Data Store : 7946571
Heartbeat CPU 5 instructions: 40000003 cycles: 30233891 heartbeat IPC: 1.40845 cumulative IPC: 1.32302 (Simulation time: 2 hr 54 min 17 sec) 
 Total Blocks : 196608 Invalid Blocks : 0 Valid Blocks : 196608
 Total Tags : 491520 Threshold : 12288 Invalid Tags : 196608 Pr0 Tags : 98304 Pr1 Tags : 196608 num_pr0 : 12288
 SAE Count : 0
 Inter-Core Inteference in Data Store : 7946639
Heartbeat CPU 4 instructions: 40000003 cycles: 30234304 heartbeat IPC: 1.40834 cumulative IPC: 1.323 (Simulation time: 2 hr 54 min 18 sec) 
 Total Blocks : 196608 Invalid Blocks : 0 Valid Blocks : 196608
 Total Tags : 491520 Threshold : 12288 Invalid Tags : 196608 Pr0 Tags : 98304 Pr1 Tags : 196608 num_pr0 : 12288
 SAE Count : 0
 Inter-Core Inteference in Data Store : 7946695
Heartbeat CPU 7 instructions: 40000003 cycles: 30242761 heartbeat IPC: 1.40784 cumulative IPC: 1.32263 (Simulation time: 2 hr 54 min 21 sec) 
 Total Blocks : 196608 Invalid Blocks : 0 Valid Blocks : 196608
 Total Tags : 491520 Threshold : 12288 Invalid Tags : 196609 Pr0 Tags : 98303 Pr1 Tags : 196608 num_pr0 : 12288
 SAE Count : 0
 Inter-Core Inteference in Data Store : 7947845
Heartbeat CPU 6 instructions: 40000003 cycles: 30243482 heartbeat IPC: 1.40783 cumulative IPC: 1.3226 (Simulation time: 2 hr 54 min 21 sec) 
 Total Blocks : 196608 Invalid Blocks : 0 Valid Blocks : 196608
 Total Tags : 491520 Threshold : 12288 Invalid Tags : 196608 Pr0 Tags : 98304 Pr1 Tags : 196608 num_pr0 : 12288
 SAE Count : 0
 Inter-Core Inteference in Data Store : 7947929
Heartbeat CPU 0 instructions: 50000002 cycles: 37039964 heartbeat IPC: 1.4643 cumulative IPC: 1.34989 (Simulation time: 3 hr 45 min 3 sec) 
 Total Blocks : 196608 Invalid Blocks : 0 Valid Blocks : 196608
 Total Tags : 491520 Threshold : 12288 Invalid Tags : 196608 Pr0 Tags : 98304 Pr1 Tags : 196608 num_pr0 : 12288
 SAE Count : 0
 Inter-Core Inteference in Data Store : 10129668
Heartbeat CPU 3 instructions: 50000002 cycles: 37045063 heartbeat IPC: 1.46448 cumulative IPC: 1.34971 (Simulation time: 3 hr 45 min 5 sec) 
 Total Blocks : 196608 Invalid Blocks : 0 Valid Blocks : 196608
 Total Tags : 491520 Threshold : 12288 Invalid Tags : 196610 Pr0 Tags : 98302 Pr1 Tags : 196608 num_pr0 : 12288
 SAE Count : 0
 Inter-Core Inteference in Data Store : 10130228
Heartbeat CPU 2 instructions: 50000002 cycles: 37065572 heartbeat IPC: 1.46346 cumulative IPC: 1.34896 (Simulation time: 3 hr 45 min 13 sec) 
 Total Blocks : 196608 Invalid Blocks : 0 Valid Blocks : 196608
 Total Tags : 491520 Threshold : 12288 Invalid Tags : 196608 Pr0 Tags : 98304 Pr1 Tags : 196608 num_pr0 : 12288
 SAE Count : 0
 Inter-Core Inteference in Data Store : 10132419
Heartbeat CPU 1 instructions: 50000002 cycles: 37066631 heartbeat IPC: 1.46344 cumulative IPC: 1.34892 (Simulation time: 3 hr 45 min 13 sec) 
 Total Blocks : 196608 Invalid Blocks : 0 Valid Blocks : 196608
 Total Tags : 491520 Threshold : 12288 Invalid Tags : 196609 Pr0 Tags : 98303 Pr1 Tags : 196608 num_pr0 : 12288
 SAE Count : 0
 Inter-Core Inteference in Data Store : 10132532
Heartbeat CPU 5 instructions: 50000002 cycles: 37068170 heartbeat IPC: 1.46321 cumulative IPC: 1.34887 (Simulation time: 3 hr 45 min 14 sec) 
 Total Blocks : 196608 Invalid Blocks : 0 Valid Blocks : 196608
 Total Tags : 491520 Threshold : 12288 Invalid Tags : 196608 Pr0 Tags : 98304 Pr1 Tags : 196608 num_pr0 : 12288
 SAE Count : 0
 Inter-Core Inteference in Data Store : 10132684
Heartbeat CPU 4 instructions: 50000002 cycles: 37069166 heartbeat IPC: 1.46309 cumulative IPC: 1.34883 (Simulation time: 3 hr 45 min 14 sec) 
 Total Blocks : 196608 Invalid Blocks : 0 Valid Blocks : 196608
 Total Tags : 491520 Threshold : 12288 Invalid Tags : 196609 Pr0 Tags : 98303 Pr1 Tags : 196608 num_pr0 : 12288
 SAE Count : 0
 Inter-Core Inteference in Data Store : 10132773
Heartbeat CPU 7 instructions: 50000002 cycles: 37078715 heartbeat IPC: 1.46285 cumulative IPC: 1.34848 (Simulation time: 3 hr 45 min 17 sec) 
 Total Blocks : 196608 Invalid Blocks : 0 Valid Blocks : 196608
 Total Tags : 491520 Threshold : 12288 Invalid Tags : 196609 Pr0 Tags : 98303 Pr1 Tags : 196608 num_pr0 : 12288
 SAE Count : 0
 Inter-Core Inteference in Data Store : 10133631
Heartbeat CPU 6 instructions: 50000002 cycles: 37079943 heartbeat IPC: 1.46274 cumulative IPC: 1.34844 (Simulation time: 3 hr 45 min 17 sec) 
 Total Blocks : 196608 Invalid Blocks : 0 Valid Blocks : 196608
 Total Tags : 491520 Threshold : 12288 Invalid Tags : 196608 Pr0 Tags : 98304 Pr1 Tags : 196608 num_pr0 : 12288
 SAE Count : 0
 Inter-Core Inteference in Data Store : 10133772
Heartbeat CPU 0 instructions: 60000001 cycles: 43555799 heartbeat IPC: 1.53472 cumulative IPC: 1.37754 (Simulation time: 4 hr 39 min 47 sec) 
 Total Blocks : 196608 Invalid Blocks : 0 Valid Blocks : 196608
 Total Tags : 491520 Threshold : 12288 Invalid Tags : 196608 Pr0 Tags : 98304 Pr1 Tags : 196608 num_pr0 : 12288
 SAE Count : 0
 Inter-Core Inteference in Data Store : 12409166
Heartbeat CPU 3 instructions: 60000001 cycles: 43559187 heartbeat IPC: 1.53513 cumulative IPC: 1.37744 (Simulation time: 4 hr 39 min 49 sec) 
 Total Blocks : 196608 Invalid Blocks : 0 Valid Blocks : 196608
 Total Tags : 491520 Threshold : 12288 Invalid Tags : 196609 Pr0 Tags : 98303 Pr1 Tags : 196608 num_pr0 : 12287
 SAE Count : 0
 Inter-Core Inteference in Data Store : 12410120
Heartbeat CPU 2 instructions: 60000001 cycles: 43584500 heartbeat IPC: 1.53399 cumulative IPC: 1.37664 (Simulation time: 4 hr 40 min 1 sec) 
 Total Blocks : 196608 Invalid Blocks : 0 Valid Blocks : 196608
 Total Tags : 491520 Threshold : 12288 Invalid Tags : 196608 Pr0 Tags : 98304 Pr1 Tags : 196608 num_pr0 : 12288
 SAE Count : 0
 Inter-Core Inteference in Data Store : 12416663
Heartbeat CPU 1 instructions: 60000001 cycles: 43585069 heartbeat IPC: 1.53411 cumulative IPC: 1.37662 (Simulation time: 4 hr 40 min 1 sec) 
 Total Blocks : 196608 Invalid Blocks : 0 Valid Blocks : 196608
 Total Tags : 491520 Threshold : 12288 Invalid Tags : 196608 Pr0 Tags : 98304 Pr1 Tags : 196608 num_pr0 : 12288
 SAE Count : 0
 Inter-Core Inteference in Data Store : 12416783
Heartbeat CPU 5 instructions: 60000001 cycles: 43589303 heartbeat IPC: 1.53348 cumulative IPC: 1.37648 (Simulation time: 4 hr 40 min 2 sec) 
 Total Blocks : 196608 Invalid Blocks : 0 Valid Blocks : 196608
 Total Tags : 491520 Threshold : 12288 Invalid Tags : 196608 Pr0 Tags : 98304 Pr1 Tags : 196608 num_pr0 : 12288
 SAE Count : 0
 Inter-Core Inteference in Data Store : 12417823
Heartbeat CPU 4 instructions: 60000001 cycles: 43589696 heartbeat IPC: 1.53362 cumulative IPC: 1.37647 (Simulation time: 4 hr 40 min 2 sec) 
 Total Blocks : 196608 Invalid Blocks : 0 Valid Blocks : 196608
 Total Tags : 491520 Threshold : 12288 Invalid Tags : 196610 Pr0 Tags : 98302 Pr1 Tags : 196608 num_pr0 : 12288
 SAE Count : 0
 Inter-Core Inteference in Data Store : 12417943
Heartbeat CPU 7 instructions: 60000001 cycles: 43600673 heartbeat IPC: 1.53328 cumulative IPC: 1.37613 (Simulation time: 4 hr 40 min 8 sec) 
 Total Blocks : 196608 Invalid Blocks : 0 Valid Blocks : 196608
 Total Tags : 491520 Threshold : 12288 Invalid Tags : 196610 Pr0 Tags : 98302 Pr1 Tags : 196608 num_pr0 : 12288
 SAE Count : 0
 Inter-Core Inteference in Data Store : 12420471
Heartbeat CPU 6 instructions: 60000001 cycles: 43602456 heartbeat IPC: 1.53315 cumulative IPC: 1.37607 (Simulation time: 4 hr 40 min 8 sec) 
 Total Blocks : 196608 Invalid Blocks : 0 Valid Blocks : 196608
 Total Tags : 491520 Threshold : 12288 Invalid Tags : 196608 Pr0 Tags : 98304 Pr1 Tags : 196608 num_pr0 : 12288
 SAE Count : 0
 Inter-Core Inteference in Data Store : 12420863
Heartbeat CPU 0 instructions: 70000000 cycles: 49908037 heartbeat IPC: 1.57425 cumulative IPC: 1.40258 (Simulation time: 5 hr 36 min 27 sec) 
 Total Blocks : 196608 Invalid Blocks : 0 Valid Blocks : 196608
 Total Tags : 491520 Threshold : 12288 Invalid Tags : 196609 Pr0 Tags : 98303 Pr1 Tags : 196608 num_pr0 : 12287
 SAE Count : 0
 Inter-Core Inteference in Data Store : 14721179
Heartbeat CPU 3 instructions: 70000000 cycles: 49909491 heartbeat IPC: 1.57473 cumulative IPC: 1.40254 (Simulation time: 5 hr 36 min 29 sec) 
 Total Blocks : 196608 Invalid Blocks : 0 Valid Blocks : 196608
 Total Tags : 491520 Threshold : 12288 Invalid Tags : 196608 Pr0 Tags : 98304 Pr1 Tags : 196608 num_pr0 : 12288
 SAE Count : 0
 Inter-Core Inteference in Data Store : 14721873
Heartbeat CPU 2 instructions: 70000000 cycles: 49938545 heartbeat IPC: 1.5738 cumulative IPC: 1.40172 (Simulation time: 5 hr 36 min 48 sec) 
 Total Blocks : 196608 Invalid Blocks : 0 Valid Blocks : 196608
 Total Tags : 491520 Threshold : 12288 Invalid Tags : 196608 Pr0 Tags : 98304 Pr1 Tags : 196608 num_pr0 : 12288
 SAE Count : 0
 Inter-Core Inteference in Data Store : 14735240
Heartbeat CPU 1 instructions: 70000000 cycles: 49938873 heartbeat IPC: 1.57386 cumulative IPC: 1.40171 (Simulation time: 5 hr 36 min 48 sec) 
 Total Blocks : 196608 Invalid Blocks : 0 Valid Blocks : 196608
 Total Tags : 491520 Threshold : 12288 Invalid Tags : 196608 Pr0 Tags : 98304 Pr1 Tags : 196608 num_pr0 : 12288
 SAE Count : 0
 Inter-Core Inteference in Data Store : 14735396
Heartbeat CPU 5 instructions: 70000000 cycles: 49945648 heartbeat IPC: 1.57323 cumulative IPC: 1.40152 (Simulation time: 5 hr 36 min 53 sec) 
 Total Blocks : 196608 Invalid Blocks : 0 Valid Blocks : 196608
 Total Tags : 491520 Threshold : 12288 Invalid Tags : 196608 Pr0 Tags : 98304 Pr1 Tags : 196608 num_pr0 : 12288
 SAE Count : 0
 Inter-Core Inteference in Data Store : 14738344
Heartbeat CPU 4 instructions: 70000000 cycles: 49945657 heartbeat IPC: 1.57333 cumulative IPC: 1.40152 (Simulation time: 5 hr 36 min 53 sec) 
 Total Blocks : 196608 Invalid Blocks : 0 Valid Blocks : 196608
 Total Tags : 491520 Threshold : 12288 Invalid Tags : 196608 Pr0 Tags : 98304 Pr1 Tags : 196608 num_pr0 : 12288
 SAE Count : 0
 Inter-Core Inteference in Data Store : 14738349
Heartbeat CPU 7 instructions: 70000000 cycles: 49958745 heartbeat IPC: 1.5728 cumulative IPC: 1.40116 (Simulation time: 5 hr 37 min 0 sec) 
 Total Blocks : 196608 Invalid Blocks : 0 Valid Blocks : 196608
 Total Tags : 491520 Threshold : 12288 Invalid Tags : 196608 Pr0 Tags : 98304 Pr1 Tags : 196608 num_pr0 : 12288
 SAE Count : 0
 Inter-Core Inteference in Data Store : 14743871
Heartbeat CPU 6 instructions: 70000000 cycles: 49960900 heartbeat IPC: 1.57271 cumulative IPC: 1.4011 (Simulation time: 5 hr 37 min 1 sec) 
 Total Blocks : 196608 Invalid Blocks : 0 Valid Blocks : 196608
 Total Tags : 491520 Threshold : 12288 Invalid Tags : 196608 Pr0 Tags : 98304 Pr1 Tags : 196608 num_pr0 : 12288
 SAE Count : 0
 Inter-Core Inteference in Data Store : 14744723
Heartbeat CPU 3 instructions: 80000003 cycles: 56250832 heartbeat IPC: 1.57695 cumulative IPC: 1.4222 (Simulation time: 6 hr 30 min 34 sec) 
 Total Blocks : 196608 Invalid Blocks : 0 Valid Blocks : 196608
 Total Tags : 491520 Threshold : 12288 Invalid Tags : 196608 Pr0 Tags : 98304 Pr1 Tags : 196608 num_pr0 : 12288
 SAE Count : 0
 Inter-Core Inteference in Data Store : 16737183
Heartbeat CPU 0 instructions: 80000003 cycles: 56250878 heartbeat IPC: 1.57658 cumulative IPC: 1.4222 (Simulation time: 6 hr 30 min 34 sec) 
 Total Blocks : 196608 Invalid Blocks : 0 Valid Blocks : 196608
 Total Tags : 491520 Threshold : 12288 Invalid Tags : 196608 Pr0 Tags : 98304 Pr1 Tags : 196608 num_pr0 : 12288
 SAE Count : 0
 Inter-Core Inteference in Data Store : 16737192
Heartbeat CPU 1 instructions: 80000003 cycles: 56283052 heartbeat IPC: 1.57625 cumulative IPC: 1.42139 (Simulation time: 6 hr 30 min 59 sec) 
 Total Blocks : 196608 Invalid Blocks : 0 Valid Blocks : 196608
 Total Tags : 491520 Threshold : 12288 Invalid Tags : 196608 Pr0 Tags : 98304 Pr1 Tags : 196608 num_pr0 : 12288
 SAE Count : 0
 Inter-Core Inteference in Data Store : 16752504
Heartbeat CPU 2 instructions: 80000003 cycles: 56283205 heartbeat IPC: 1.57613 cumulative IPC: 1.42138 (Simulation time: 6 hr 30 min 59 sec) 
 Total Blocks : 196608 Invalid Blocks : 0 Valid Blocks : 196608
 Total Tags : 491520 Threshold : 12288 Invalid Tags : 196608 Pr0 Tags : 98304 Pr1 Tags : 196608 num_pr0 : 12288
 SAE Count : 0
 Inter-Core Inteference in Data Store : 16752606
Heartbeat CPU 4 instructions: 80000003 cycles: 56291707 heartbeat IPC: 1.57578 cumulative IPC: 1.42117 (Simulation time: 6 hr 31 min 5 sec) 
 Total Blocks : 196608 Invalid Blocks : 0 Valid Blocks : 196608
 Total Tags : 491520 Threshold : 12288 Invalid Tags : 196608 Pr0 Tags : 98304 Pr1 Tags : 196608 num_pr0 : 12288
 SAE Count : 0
 Inter-Core Inteference in Data Store : 16756953
Heartbeat CPU 5 instructions: 80000003 cycles: 56291713 heartbeat IPC: 1.57578 cumulative IPC: 1.42117 (Simulation time: 6 hr 31 min 5 sec) 
 Total Blocks : 196608 Invalid Blocks : 0 Valid Blocks : 196608
 Total Tags : 491520 Threshold : 12288 Invalid Tags : 196608 Pr0 Tags : 98304 Pr1 Tags : 196608 num_pr0 : 12288
 SAE Count : 0
 Inter-Core Inteference in Data Store : 16756954
Heartbeat CPU 7 instructions: 80000003 cycles: 56306175 heartbeat IPC: 1.57544 cumulative IPC: 1.4208 (Simulation time: 6 hr 31 min 18 sec) 
 Total Blocks : 196608 Invalid Blocks : 0 Valid Blocks : 196608
 Total Tags : 491520 Threshold : 12288 Invalid Tags : 196608 Pr0 Tags : 98304 Pr1 Tags : 196608 num_pr0 : 12288
 SAE Count : 0
 Inter-Core Inteference in Data Store : 16765139
Heartbeat CPU 6 instructions: 80000003 cycles: 56308676 heartbeat IPC: 1.57536 cumulative IPC: 1.42074 (Simulation time: 6 hr 31 min 20 sec) 
 Total Blocks : 196608 Invalid Blocks : 0 Valid Blocks : 196608
 Total Tags : 491520 Threshold : 12288 Invalid Tags : 196608 Pr0 Tags : 98304 Pr1 Tags : 196608 num_pr0 : 12288
 SAE Count : 0
 Inter-Core Inteference in Data Store : 16766421
Heartbeat CPU 3 instructions: 90000000 cycles: 62278869 heartbeat IPC: 1.65891 cumulative IPC: 1.44511 (Simulation time: 7 hr 37 min 43 sec) 
 Total Blocks : 196608 Invalid Blocks : 0 Valid Blocks : 196608
 Total Tags : 491520 Threshold : 12288 Invalid Tags : 196608 Pr0 Tags : 98304 Pr1 Tags : 196608 num_pr0 : 12288
 SAE Count : 0
 Inter-Core Inteference in Data Store : 19257928
Heartbeat CPU 0 instructions: 90000000 cycles: 62280459 heartbeat IPC: 1.65849 cumulative IPC: 1.44508 (Simulation time: 7 hr 37 min 44 sec) 
 Total Blocks : 196608 Invalid Blocks : 0 Valid Blocks : 196608
 Total Tags : 491520 Threshold : 12288 Invalid Tags : 196608 Pr0 Tags : 98304 Pr1 Tags : 196608 num_pr0 : 12288
 SAE Count : 0
 Inter-Core Inteference in Data Store : 19258333
Heartbeat CPU 1 instructions: 90000000 cycles: 62314094 heartbeat IPC: 1.65809 cumulative IPC: 1.4443 (Simulation time: 7 hr 38 min 0 sec) 
 Total Blocks : 196608 Invalid Blocks : 0 Valid Blocks : 196608
 Total Tags : 491520 Threshold : 12288 Invalid Tags : 196608 Pr0 Tags : 98304 Pr1 Tags : 196608 num_pr0 : 12288
 SAE Count : 0
 Inter-Core Inteference in Data Store : 19265816
Heartbeat CPU 2 instructions: 90000000 cycles: 62314668 heartbeat IPC: 1.65797 cumulative IPC: 1.44428 (Simulation time: 7 hr 38 min 0 sec) 
 Total Blocks : 196608 Invalid Blocks : 0 Valid Blocks : 196608
 Total Tags : 491520 Threshold : 12288 Invalid Tags : 196608 Pr0 Tags : 98304 Pr1 Tags : 196608 num_pr0 : 12288
 SAE Count : 0
 Inter-Core Inteference in Data Store : 19265954
Heartbeat CPU 4 instructions: 90000000 cycles: 62324735 heartbeat IPC: 1.65754 cumulative IPC: 1.44405 (Simulation time: 7 hr 38 min 7 sec) 
 Total Blocks : 196608 Invalid Blocks : 0 Valid Blocks : 196608
 Total Tags : 491520 Threshold : 12288 Invalid Tags : 196608 Pr0 Tags : 98304 Pr1 Tags : 196608 num_pr0 : 12288
 SAE Count : 0
 Inter-Core Inteference in Data Store : 19268089
Heartbeat CPU 5 instructions: 90000000 cycles: 62324850 heartbeat IPC: 1.65751 cumulative IPC: 1.44405 (Simulation time: 7 hr 38 min 7 sec) 
 Total Blocks : 196608 Invalid Blocks : 0 Valid Blocks : 196608
 Total Tags : 491520 Threshold : 12288 Invalid Tags : 196608 Pr0 Tags : 98304 Pr1 Tags : 196608 num_pr0 : 12288
 SAE Count : 0
 Inter-Core Inteference in Data Store : 19268116
Heartbeat CPU 7 instructions: 90000000 cycles: 62341319 heartbeat IPC: 1.65696 cumulative IPC: 1.44367 (Simulation time: 7 hr 38 min 15 sec) 
 Total Blocks : 196608 Invalid Blocks : 0 Valid Blocks : 196608
 Total Tags : 491520 Threshold : 12288 Invalid Tags : 196608 Pr0 Tags : 98304 Pr1 Tags : 196608 num_pr0 : 12288
 SAE Count : 0
 Inter-Core Inteference in Data Store : 19271203
Heartbeat CPU 6 instructions: 90000000 cycles: 62343540 heartbeat IPC: 1.65704 cumulative IPC: 1.44361 (Simulation time: 7 hr 38 min 16 sec) 
 Total Blocks : 196608 Invalid Blocks : 0 Valid Blocks : 196608
 Total Tags : 491520 Threshold : 12288 Invalid Tags : 196608 Pr0 Tags : 98304 Pr1 Tags : 196608 num_pr0 : 12288
 SAE Count : 0
 Inter-Core Inteference in Data Store : 19271640
Heartbeat CPU 3 instructions: 100000000 cycles: 68236687 heartbeat IPC: 1.67847 cumulative IPC: 1.46549 (Simulation time: 8 hr 42 min 23 sec) 
 Total Blocks : 196608 Invalid Blocks : 0 Valid Blocks : 196608
 Total Tags : 491520 Threshold : 12288 Invalid Tags : 196608 Pr0 Tags : 98304 Pr1 Tags : 196608 num_pr0 : 12288
 SAE Count : 0
 Inter-Core Inteference in Data Store : 21561494
Heartbeat CPU 0 instructions: 100000000 cycles: 68239522 heartbeat IPC: 1.67812 cumulative IPC: 1.46543 (Simulation time: 8 hr 42 min 24 sec) 
 Total Blocks : 196608 Invalid Blocks : 0 Valid Blocks : 196608
 Total Tags : 491520 Threshold : 12288 Invalid Tags : 196608 Pr0 Tags : 98304 Pr1 Tags : 196608 num_pr0 : 12288
 SAE Count : 0
 Inter-Core Inteference in Data Store : 21562701
Heartbeat CPU 1 instructions: 100000000 cycles: 68274197 heartbeat IPC: 1.67782 cumulative IPC: 1.46468 (Simulation time: 8 hr 42 min 47 sec) 
 Total Blocks : 196608 Invalid Blocks : 0 Valid Blocks : 196608
 Total Tags : 491520 Threshold : 12288 Invalid Tags : 196608 Pr0 Tags : 98304 Pr1 Tags : 196608 num_pr0 : 12288
 SAE Count : 0
 Inter-Core Inteference in Data Store : 21578232
Heartbeat CPU 2 instructions: 100000000 cycles: 68275902 heartbeat IPC: 1.67751 cumulative IPC: 1.46465 (Simulation time: 8 hr 42 min 48 sec) 
 Total Blocks : 196608 Invalid Blocks : 0 Valid Blocks : 196608
 Total Tags : 491520 Threshold : 12288 Invalid Tags : 196608 Pr0 Tags : 98304 Pr1 Tags : 196608 num_pr0 : 12288
 SAE Count : 0
 Inter-Core Inteference in Data Store : 21578966
Heartbeat CPU 4 instructions: 100000000 cycles: 68287194 heartbeat IPC: 1.67716 cumulative IPC: 1.4644 (Simulation time: 8 hr 42 min 54 sec) 
 Total Blocks : 196608 Invalid Blocks : 0 Valid Blocks : 196608
 Total Tags : 491520 Threshold : 12288 Invalid Tags : 196608 Pr0 Tags : 98304 Pr1 Tags : 196608 num_pr0 : 12288
 SAE Count : 0
 Inter-Core Inteference in Data Store : 21583982
Heartbeat CPU 5 instructions: 100000000 cycles: 68287375 heartbeat IPC: 1.67714 cumulative IPC: 1.4644 (Simulation time: 8 hr 42 min 55 sec) 
 Total Blocks : 196608 Invalid Blocks : 0 Valid Blocks : 196608
 Total Tags : 491520 Threshold : 12288 Invalid Tags : 196608 Pr0 Tags : 98304 Pr1 Tags : 196608 num_pr0 : 12288
 SAE Count : 0
 Inter-Core Inteference in Data Store : 21584057
Heartbeat CPU 7 instructions: 100000000 cycles: 68305606 heartbeat IPC: 1.67665 cumulative IPC: 1.46401 (Simulation time: 8 hr 43 min 8 sec) 
 Total Blocks : 196608 Invalid Blocks : 0 Valid Blocks : 196608
 Total Tags : 491520 Threshold : 12288 Invalid Tags : 196608 Pr0 Tags : 98304 Pr1 Tags : 196608 num_pr0 : 12288
 SAE Count : 0
 Inter-Core Inteference in Data Store : 21592320
Heartbeat CPU 6 instructions: 100000000 cycles: 68307524 heartbeat IPC: 1.67673 cumulative IPC: 1.46397 (Simulation time: 8 hr 43 min 10 sec) 
 Total Blocks : 196608 Invalid Blocks : 0 Valid Blocks : 196608
 Total Tags : 491520 Threshold : 12288 Invalid Tags : 196608 Pr0 Tags : 98304 Pr1 Tags : 196608 num_pr0 : 12288
 SAE Count : 0
 Inter-Core Inteference in Data Store : 21593187
Heartbeat CPU 3 instructions: 110000000 cycles: 74063922 heartbeat IPC: 1.71608 cumulative IPC: 1.4852 (Simulation time: 9 hr 50 min 38 sec) 
 Total Blocks : 196608 Invalid Blocks : 0 Valid Blocks : 196608
 Total Tags : 491520 Threshold : 12288 Invalid Tags : 196609 Pr0 Tags : 98303 Pr1 Tags : 196608 num_pr0 : 12288
 SAE Count : 0
 Inter-Core Inteference in Data Store : 24229139
Heartbeat CPU 0 instructions: 110000000 cycles: 74067982 heartbeat IPC: 1.71572 cumulative IPC: 1.48512 (Simulation time: 9 hr 50 min 40 sec) 
 Total Blocks : 196608 Invalid Blocks : 0 Valid Blocks : 196608
 Total Tags : 491520 Threshold : 12288 Invalid Tags : 196608 Pr0 Tags : 98304 Pr1 Tags : 196608 num_pr0 : 12288
 SAE Count : 0
 Inter-Core Inteference in Data Store : 24230993
Heartbeat CPU 1 instructions: 110000000 cycles: 74104272 heartbeat IPC: 1.71524 cumulative IPC: 1.48439 (Simulation time: 9 hr 51 min 1 sec) 
 Total Blocks : 196608 Invalid Blocks : 0 Valid Blocks : 196608
 Total Tags : 491520 Threshold : 12288 Invalid Tags : 196608 Pr0 Tags : 98304 Pr1 Tags : 196608 num_pr0 : 12288
 SAE Count : 0
 Inter-Core Inteference in Data Store : 24244548
Heartbeat CPU 2 instructions: 110000000 cycles: 74106650 heartbeat IPC: 1.71505 cumulative IPC: 1.48435 (Simulation time: 9 hr 51 min 2 sec) 
 Total Blocks : 196608 Invalid Blocks : 0 Valid Blocks : 196608
 Total Tags : 491520 Threshold : 12288 Invalid Tags : 196608 Pr0 Tags : 98304 Pr1 Tags : 196608 num_pr0 : 12288
 SAE Count : 0
 Inter-Core Inteference in Data Store : 24245235
Heartbeat CPU 4 instructions: 110000000 cycles: 74119559 heartbeat IPC: 1.71457 cumulative IPC: 1.48409 (Simulation time: 9 hr 51 min 8 sec) 
 Total Blocks : 196608 Invalid Blocks : 0 Valid Blocks : 196608
 Total Tags : 491520 Threshold : 12288 Invalid Tags : 196608 Pr0 Tags : 98304 Pr1 Tags : 196608 num_pr0 : 12288
 SAE Count : 0
 Inter-Core Inteference in Data Store : 24248784
Heartbeat CPU 5 instructions: 110000000 cycles: 74120041 heartbeat IPC: 1.71448 cumulative IPC: 1.48408 (Simulation time: 9 hr 51 min 9 sec) 
 Total Blocks : 196608 Invalid Blocks : 0 Valid Blocks : 196608
 Total Tags : 491520 Threshold : 12288 Invalid Tags : 196608 Pr0 Tags : 98304 Pr1 Tags : 196608 num_pr0 : 12288
 SAE Count : 0
 Inter-Core Inteference in Data Store : 24248912
Heartbeat CPU 7 instructions: 110000000 cycles: 74139799 heartbeat IPC: 1.71403 cumulative IPC: 1.48368 (Simulation time: 9 hr 51 min 19 sec) 
 Total Blocks : 196608 Invalid Blocks : 0 Valid Blocks : 196608
 Total Tags : 491520 Threshold : 12288 Invalid Tags : 196608 Pr0 Tags : 98304 Pr1 Tags : 196608 num_pr0 : 12288
 SAE Count : 0
 Inter-Core Inteference in Data Store : 24253797
Heartbeat CPU 6 instructions: 110000000 cycles: 74141117 heartbeat IPC: 1.71421 cumulative IPC: 1.48366 (Simulation time: 9 hr 51 min 20 sec) 
 Total Blocks : 196608 Invalid Blocks : 0 Valid Blocks : 196608
 Total Tags : 491520 Threshold : 12288 Invalid Tags : 196608 Pr0 Tags : 98304 Pr1 Tags : 196608 num_pr0 : 12288
 SAE Count : 0
 Inter-Core Inteference in Data Store : 24254092
Heartbeat CPU 3 instructions: 120000002 cycles: 79822924 heartbeat IPC: 1.73641 cumulative IPC: 1.50333 (Simulation time: 11 hr 0 min 17 sec) 
 Total Blocks : 196608 Invalid Blocks : 0 Valid Blocks : 196608
 Total Tags : 491520 Threshold : 12288 Invalid Tags : 196609 Pr0 Tags : 98303 Pr1 Tags : 196608 num_pr0 : 12288
 SAE Count : 0
 Inter-Core Inteference in Data Store : 26878559
Heartbeat CPU 0 instructions: 120000002 cycles: 79827833 heartbeat IPC: 1.73616 cumulative IPC: 1.50324 (Simulation time: 11 hr 0 min 21 sec) 
 Total Blocks : 196608 Invalid Blocks : 0 Valid Blocks : 196608
 Total Tags : 491520 Threshold : 12288 Invalid Tags : 196609 Pr0 Tags : 98303 Pr1 Tags : 196608 num_pr0 : 12288
 SAE Count : 0
 Inter-Core Inteference in Data Store : 26881312
Heartbeat CPU 1 instructions: 120000002 cycles: 79865801 heartbeat IPC: 1.73565 cumulative IPC: 1.50252 (Simulation time: 11 hr 0 min 48 sec) 
 Total Blocks : 196608 Invalid Blocks : 0 Valid Blocks : 196608
 Total Tags : 491520 Threshold : 12288 Invalid Tags : 196610 Pr0 Tags : 98302 Pr1 Tags : 196608 num_pr0 : 12288
 SAE Count : 0
 Inter-Core Inteference in Data Store : 26901020
Heartbeat CPU 2 instructions: 120000002 cycles: 79869168 heartbeat IPC: 1.73535 cumulative IPC: 1.50246 (Simulation time: 11 hr 0 min 52 sec) 
 Total Blocks : 196608 Invalid Blocks : 0 Valid Blocks : 196608
 Total Tags : 491520 Threshold : 12288 Invalid Tags : 196608 Pr0 Tags : 98304 Pr1 Tags : 196608 num_pr0 : 12288
 SAE Count : 0
 Inter-Core Inteference in Data Store : 26902748
Heartbeat CPU 4 instructions: 120000002 cycles: 79883554 heartbeat IPC: 1.73491 cumulative IPC: 1.50219 (Simulation time: 11 hr 1 min 5 sec) 
 Total Blocks : 196608 Invalid Blocks : 0 Valid Blocks : 196608
 Total Tags : 491520 Threshold : 12288 Invalid Tags : 196608 Pr0 Tags : 98304 Pr1 Tags : 196608 num_pr0 : 12288
 SAE Count : 0
 Inter-Core Inteference in Data Store : 26910301
Heartbeat CPU 5 instructions: 120000002 cycles: 79883896 heartbeat IPC: 1.73495 cumulative IPC: 1.50218 (Simulation time: 11 hr 1 min 6 sec) 
 Total Blocks : 196608 Invalid Blocks : 0 Valid Blocks : 196608
 Total Tags : 491520 Threshold : 12288 Invalid Tags : 196608 Pr0 Tags : 98304 Pr1 Tags : 196608 num_pr0 : 12288
 SAE Count : 0
 Inter-Core Inteference in Data Store : 26910483
Heartbeat CPU 7 instructions: 120000002 cycles: 79905417 heartbeat IPC: 1.73442 cumulative IPC: 1.50178 (Simulation time: 11 hr 1 min 22 sec) 
 Total Blocks : 196608 Invalid Blocks : 0 Valid Blocks : 196608
 Total Tags : 491520 Threshold : 12288 Invalid Tags : 196609 Pr0 Tags : 98303 Pr1 Tags : 196608 num_pr0 : 12288
 SAE Count : 0
 Inter-Core Inteference in Data Store : 26921836
Heartbeat CPU 6 instructions: 120000002 cycles: 79906569 heartbeat IPC: 1.73447 cumulative IPC: 1.50175 (Simulation time: 11 hr 1 min 23 sec) 
 Total Blocks : 196608 Invalid Blocks : 0 Valid Blocks : 196608
 Total Tags : 491520 Threshold : 12288 Invalid Tags : 196609 Pr0 Tags : 98303 Pr1 Tags : 196608 num_pr0 : 12288
 SAE Count : 0
 Inter-Core Inteference in Data Store : 26922464
Heartbeat CPU 3 instructions: 130000000 cycles: 85578056 heartbeat IPC: 1.73758 cumulative IPC: 1.51908 (Simulation time: 12 hr 11 min 4 sec) 
 Total Blocks : 196608 Invalid Blocks : 0 Valid Blocks : 196608
 Total Tags : 491520 Threshold : 12288 Invalid Tags : 196608 Pr0 Tags : 98304 Pr1 Tags : 196608 num_pr0 : 12288
 SAE Count : 0
 Inter-Core Inteference in Data Store : 29182581
Heartbeat CPU 0 instructions: 130000000 cycles: 85583861 heartbeat IPC: 1.73731 cumulative IPC: 1.51898 (Simulation time: 12 hr 11 min 8 sec) 
 Total Blocks : 196608 Invalid Blocks : 0 Valid Blocks : 196608
 Total Tags : 491520 Threshold : 12288 Invalid Tags : 196608 Pr0 Tags : 98304 Pr1 Tags : 196608 num_pr0 : 12288
 SAE Count : 0
 Inter-Core Inteference in Data Store : 29185253
Heartbeat CPU 1 instructions: 130000000 cycles: 85623078 heartbeat IPC: 1.73693 cumulative IPC: 1.51828 (Simulation time: 12 hr 11 min 34 sec) 
 Total Blocks : 196608 Invalid Blocks : 0 Valid Blocks : 196608
 Total Tags : 491520 Threshold : 12288 Invalid Tags : 196609 Pr0 Tags : 98303 Pr1 Tags : 196608 num_pr0 : 12287
 SAE Count : 0
 Inter-Core Inteference in Data Store : 29201607
Heartbeat CPU 2 instructions: 130000000 cycles: 85627240 heartbeat IPC: 1.73669 cumulative IPC: 1.51821 (Simulation time: 12 hr 11 min 37 sec) 
 Total Blocks : 196608 Invalid Blocks : 0 Valid Blocks : 196608
 Total Tags : 491520 Threshold : 12288 Invalid Tags : 196608 Pr0 Tags : 98304 Pr1 Tags : 196608 num_pr0 : 12288
 SAE Count : 0
 Inter-Core Inteference in Data Store : 29203182
Heartbeat CPU 4 instructions: 130000000 cycles: 85642950 heartbeat IPC: 1.73629 cumulative IPC: 1.51793 (Simulation time: 12 hr 11 min 48 sec) 
 Total Blocks : 196608 Invalid Blocks : 0 Valid Blocks : 196608
 Total Tags : 491520 Threshold : 12288 Invalid Tags : 196608 Pr0 Tags : 98304 Pr1 Tags : 196608 num_pr0 : 12288
 SAE Count : 0
 Inter-Core Inteference in Data Store : 29208196
Heartbeat CPU 5 instructions: 130000000 cycles: 85643276 heartbeat IPC: 1.7363 cumulative IPC: 1.51792 (Simulation time: 12 hr 11 min 48 sec) 
 Total Blocks : 196608 Invalid Blocks : 0 Valid Blocks : 196608
 Total Tags : 491520 Threshold : 12288 Invalid Tags : 196608 Pr0 Tags : 98304 Pr1 Tags : 196608 num_pr0 : 12288
 SAE Count : 0
 Inter-Core Inteference in Data Store : 29208279
Heartbeat CPU 7 instructions: 130000000 cycles: 85666584 heartbeat IPC: 1.73576 cumulative IPC: 1.51751 (Simulation time: 12 hr 12 min 4 sec) 
 Total Blocks : 196608 Invalid Blocks : 0 Valid Blocks : 196608
 Total Tags : 491520 Threshold : 12288 Invalid Tags : 196608 Pr0 Tags : 98304 Pr1 Tags : 196608 num_pr0 : 12288
 SAE Count : 0
 Inter-Core Inteference in Data Store : 29215020
Heartbeat CPU 6 instructions: 130000000 cycles: 85666870 heartbeat IPC: 1.73602 cumulative IPC: 1.51751 (Simulation time: 12 hr 12 min 5 sec) 
 Total Blocks : 196608 Invalid Blocks : 0 Valid Blocks : 196608
 Total Tags : 491520 Threshold : 12288 Invalid Tags : 196608 Pr0 Tags : 98304 Pr1 Tags : 196608 num_pr0 : 12288
 SAE Count : 0
 Inter-Core Inteference in Data Store : 29215085
Heartbeat CPU 3 instructions: 140000003 cycles: 91241264 heartbeat IPC: 1.76578 cumulative IPC: 1.53439 (Simulation time: 13 hr 24 min 52 sec) 
 Total Blocks : 196608 Invalid Blocks : 0 Valid Blocks : 196608
 Total Tags : 491520 Threshold : 12288 Invalid Tags : 196608 Pr0 Tags : 98304 Pr1 Tags : 196608 num_pr0 : 12288
 SAE Count : 0
 Inter-Core Inteference in Data Store : 31719698
Heartbeat CPU 0 instructions: 140000003 cycles: 91248117 heartbeat IPC: 1.76546 cumulative IPC: 1.53428 (Simulation time: 13 hr 24 min 57 sec) 
 Total Blocks : 196608 Invalid Blocks : 0 Valid Blocks : 196608
 Total Tags : 491520 Threshold : 12288 Invalid Tags : 196608 Pr0 Tags : 98304 Pr1 Tags : 196608 num_pr0 : 12288
 SAE Count : 0
 Inter-Core Inteference in Data Store : 31721238
Heartbeat CPU 1 instructions: 140000003 cycles: 91288408 heartbeat IPC: 1.76512 cumulative IPC: 1.5336 (Simulation time: 13 hr 25 min 22 sec) 
 Total Blocks : 196608 Invalid Blocks : 0 Valid Blocks : 196608
 Total Tags : 491520 Threshold : 12288 Invalid Tags : 196608 Pr0 Tags : 98304 Pr1 Tags : 196608 num_pr0 : 12288
 SAE Count : 0
 Inter-Core Inteference in Data Store : 31731523
Heartbeat CPU 2 instructions: 140000003 cycles: 91293134 heartbeat IPC: 1.76495 cumulative IPC: 1.53352 (Simulation time: 13 hr 25 min 25 sec) 
 Total Blocks : 196608 Invalid Blocks : 0 Valid Blocks : 196608
 Total Tags : 491520 Threshold : 12288 Invalid Tags : 196608 Pr0 Tags : 98304 Pr1 Tags : 196608 num_pr0 : 12288
 SAE Count : 0
 Inter-Core Inteference in Data Store : 31732901
Heartbeat CPU 4 instructions: 140000003 cycles: 91310452 heartbeat IPC: 1.76445 cumulative IPC: 1.53323 (Simulation time: 13 hr 25 min 36 sec) 
 Total Blocks : 196608 Invalid Blocks : 0 Valid Blocks : 196608
 Total Tags : 491520 Threshold : 12288 Invalid Tags : 196608 Pr0 Tags : 98304 Pr1 Tags : 196608 num_pr0 : 12288
 SAE Count : 0
 Inter-Core Inteference in Data Store : 31737634
Heartbeat CPU 5 instructions: 140000003 cycles: 91310824 heartbeat IPC: 1.76443 cumulative IPC: 1.53322 (Simulation time: 13 hr 25 min 37 sec) 
 Total Blocks : 196608 Invalid Blocks : 0 Valid Blocks : 196608
 Total Tags : 491520 Threshold : 12288 Invalid Tags : 196608 Pr0 Tags : 98304 Pr1 Tags : 196608 num_pr0 : 12288
 SAE Count : 0
 Inter-Core Inteference in Data Store : 31737755
Heartbeat CPU 6 instructions: 140000003 cycles: 91335573 heartbeat IPC: 1.76407 cumulative IPC: 1.53281 (Simulation time: 13 hr 25 min 53 sec) 
 Total Blocks : 196608 Invalid Blocks : 0 Valid Blocks : 196608
 Total Tags : 491520 Threshold : 12288 Invalid Tags : 196608 Pr0 Tags : 98304 Pr1 Tags : 196608 num_pr0 : 12288
 SAE Count : 0
 Inter-Core Inteference in Data Store : 31746850
Heartbeat CPU 7 instructions: 140000003 cycles: 91335610 heartbeat IPC: 1.76397 cumulative IPC: 1.53281 (Simulation time: 13 hr 25 min 53 sec) 
 Total Blocks : 196608 Invalid Blocks : 0 Valid Blocks : 196608
 Total Tags : 491520 Threshold : 12288 Invalid Tags : 196608 Pr0 Tags : 98304 Pr1 Tags : 196608 num_pr0 : 12288
 SAE Count : 0
 Inter-Core Inteference in Data Store : 31746868
Heartbeat CPU 3 instructions: 150000003 cycles: 96839364 heartbeat IPC: 1.78632 cumulative IPC: 1.54896 (Simulation time: 14 hr 41 min 16 sec) 
 Total Blocks : 196608 Invalid Blocks : 0 Valid Blocks : 196608
 Total Tags : 491520 Threshold : 12288 Invalid Tags : 196608 Pr0 Tags : 98304 Pr1 Tags : 196608 num_pr0 : 12288
 SAE Count : 0
 Inter-Core Inteference in Data Store : 34396823
Heartbeat CPU 0 instructions: 150000003 cycles: 96847119 heartbeat IPC: 1.78603 cumulative IPC: 1.54883 (Simulation time: 14 hr 41 min 21 sec) 
 Total Blocks : 196608 Invalid Blocks : 0 Valid Blocks : 196608
 Total Tags : 491520 Threshold : 12288 Invalid Tags : 196608 Pr0 Tags : 98304 Pr1 Tags : 196608 num_pr0 : 12288
 SAE Count : 0
 Inter-Core Inteference in Data Store : 34400799
Heartbeat CPU 1 instructions: 150000003 cycles: 96888608 heartbeat IPC: 1.78565 cumulative IPC: 1.54817 (Simulation time: 14 hr 41 min 56 sec) 
 Total Blocks : 196608 Invalid Blocks : 0 Valid Blocks : 196608
 Total Tags : 491520 Threshold : 12288 Invalid Tags : 196608 Pr0 Tags : 98304 Pr1 Tags : 196608 num_pr0 : 12288
 SAE Count : 0
 Inter-Core Inteference in Data Store : 34423723
Heartbeat CPU 2 instructions: 150000003 cycles: 96894033 heartbeat IPC: 1.78543 cumulative IPC: 1.54808 (Simulation time: 14 hr 42 min 1 sec) 
 Total Blocks : 196608 Invalid Blocks : 0 Valid Blocks : 196608
 Total Tags : 491520 Threshold : 12288 Invalid Tags : 196609 Pr0 Tags : 98303 Pr1 Tags : 196608 num_pr0 : 12287
 SAE Count : 0
 Inter-Core Inteference in Data Store : 34426771
Heartbeat CPU 4 instructions: 150000003 cycles: 96912917 heartbeat IPC: 1.78493 cumulative IPC: 1.54778 (Simulation time: 14 hr 42 min 15 sec) 
 Total Blocks : 196608 Invalid Blocks : 0 Valid Blocks : 196608
 Total Tags : 491520 Threshold : 12288 Invalid Tags : 196608 Pr0 Tags : 98304 Pr1 Tags : 196608 num_pr0 : 12288
 SAE Count : 0
 Inter-Core Inteference in Data Store : 34437415
Heartbeat CPU 5 instructions: 150000003 cycles: 96913359 heartbeat IPC: 1.78491 cumulative IPC: 1.54777 (Simulation time: 14 hr 42 min 15 sec) 
 Total Blocks : 196608 Invalid Blocks : 0 Valid Blocks : 196608
 Total Tags : 491520 Threshold : 12288 Invalid Tags : 196608 Pr0 Tags : 98304 Pr1 Tags : 196608 num_pr0 : 12288
 SAE Count : 0
 Inter-Core Inteference in Data Store : 34437678
Heartbeat CPU 6 instructions: 150000003 cycles: 96939673 heartbeat IPC: 1.78441 cumulative IPC: 1.54735 (Simulation time: 14 hr 42 min 37 sec) 
 Total Blocks : 196608 Invalid Blocks : 0 Valid Blocks : 196608
 Total Tags : 491520 Threshold : 12288 Invalid Tags : 196609 Pr0 Tags : 98303 Pr1 Tags : 196608 num_pr0 : 12288
 SAE Count : 0
 Inter-Core Inteference in Data Store : 34451732
Heartbeat CPU 7 instructions: 150000003 cycles: 96940067 heartbeat IPC: 1.78429 cumulative IPC: 1.54735 (Simulation time: 14 hr 42 min 37 sec) 
 Total Blocks : 196608 Invalid Blocks : 0 Valid Blocks : 196608
 Total Tags : 491520 Threshold : 12288 Invalid Tags : 196609 Pr0 Tags : 98303 Pr1 Tags : 196608 num_pr0 : 12288
 SAE Count : 0
 Inter-Core Inteference in Data Store : 34451972
Heartbeat CPU 3 instructions: 160000003 cycles: 102393075 heartbeat IPC: 1.8006 cumulative IPC: 1.56261 (Simulation time: 15 hr 55 min 24 sec) 
 Total Blocks : 196608 Invalid Blocks : 0 Valid Blocks : 196608
 Total Tags : 491520 Threshold : 12288 Invalid Tags : 196608 Pr0 Tags : 98304 Pr1 Tags : 196608 num_pr0 : 12288
 SAE Count : 0
 Inter-Core Inteference in Data Store : 37186883
Heartbeat CPU 0 instructions: 160000003 cycles: 102402055 heartbeat IPC: 1.8002 cumulative IPC: 1.56247 (Simulation time: 15 hr 55 min 30 sec) 
 Total Blocks : 196608 Invalid Blocks : 0 Valid Blocks : 196608
 Total Tags : 491520 Threshold : 12288 Invalid Tags : 196608 Pr0 Tags : 98304 Pr1 Tags : 196608 num_pr0 : 12288
 SAE Count : 0
 Inter-Core Inteference in Data Store : 37191660
Heartbeat CPU 1 instructions: 160000003 cycles: 102444783 heartbeat IPC: 1.7998 cumulative IPC: 1.56182 (Simulation time: 15 hr 56 min 1 sec) 
 Total Blocks : 196608 Invalid Blocks : 0 Valid Blocks : 196608
 Total Tags : 491520 Threshold : 12288 Invalid Tags : 196608 Pr0 Tags : 98304 Pr1 Tags : 196608 num_pr0 : 12288
 SAE Count : 0
 Inter-Core Inteference in Data Store : 37213167
Heartbeat CPU 2 instructions: 160000003 cycles: 102450644 heartbeat IPC: 1.79966 cumulative IPC: 1.56173 (Simulation time: 15 hr 56 min 5 sec) 
 Total Blocks : 196608 Invalid Blocks : 0 Valid Blocks : 196608
 Total Tags : 491520 Threshold : 12288 Invalid Tags : 196608 Pr0 Tags : 98304 Pr1 Tags : 196608 num_pr0 : 12288
 SAE Count : 0
 Inter-Core Inteference in Data Store : 37216421
Heartbeat CPU 4 instructions: 160000003 cycles: 102471401 heartbeat IPC: 1.79905 cumulative IPC: 1.56141 (Simulation time: 15 hr 56 min 20 sec) 
 Total Blocks : 196608 Invalid Blocks : 0 Valid Blocks : 196608
 Total Tags : 491520 Threshold : 12288 Invalid Tags : 196608 Pr0 Tags : 98304 Pr1 Tags : 196608 num_pr0 : 12288
 SAE Count : 0
 Inter-Core Inteference in Data Store : 37227024
Heartbeat CPU 5 instructions: 160000003 cycles: 102471982 heartbeat IPC: 1.79901 cumulative IPC: 1.5614 (Simulation time: 15 hr 56 min 20 sec) 
 Total Blocks : 196608 Invalid Blocks : 0 Valid Blocks : 196608
 Total Tags : 491520 Threshold : 12288 Invalid Tags : 196608 Pr0 Tags : 98304 Pr1 Tags : 196608 num_pr0 : 12288
 SAE Count : 0
 Inter-Core Inteference in Data Store : 37227287
Heartbeat CPU 6 instructions: 160000003 cycles: 102499351 heartbeat IPC: 1.79867 cumulative IPC: 1.56099 (Simulation time: 15 hr 56 min 37 sec) 
 Total Blocks : 196608 Invalid Blocks : 0 Valid Blocks : 196608
 Total Tags : 491520 Threshold : 12288 Invalid Tags : 196608 Pr0 Tags : 98304 Pr1 Tags : 196608 num_pr0 : 12288
 SAE Count : 0
 Inter-Core Inteference in Data Store : 37240680
Heartbeat CPU 7 instructions: 160000003 cycles: 102500059 heartbeat IPC: 1.79856 cumulative IPC: 1.56097 (Simulation time: 15 hr 56 min 37 sec) 
 Total Blocks : 196608 Invalid Blocks : 0 Valid Blocks : 196608
 Total Tags : 491520 Threshold : 12288 Invalid Tags : 196609 Pr0 Tags : 98303 Pr1 Tags : 196608 num_pr0 : 12288
 SAE Count : 0
 Inter-Core Inteference in Data Store : 37241033
Heartbeat CPU 3 instructions: 170000000 cycles: 107903120 heartbeat IPC: 1.81487 cumulative IPC: 1.57549 (Simulation time: 17 hr 9 min 27 sec) 
 Total Blocks : 196608 Invalid Blocks : 0 Valid Blocks : 196608
 Total Tags : 491520 Threshold : 12288 Invalid Tags : 196609 Pr0 Tags : 98303 Pr1 Tags : 196608 num_pr0 : 12288
 SAE Count : 0
 Inter-Core Inteference in Data Store : 40018167
Heartbeat CPU 0 instructions: 170000000 cycles: 107912645 heartbeat IPC: 1.81469 cumulative IPC: 1.57535 (Simulation time: 17 hr 9 min 35 sec) 
 Total Blocks : 196608 Invalid Blocks : 0 Valid Blocks : 196608
 Total Tags : 491520 Threshold : 12288 Invalid Tags : 196608 Pr0 Tags : 98304 Pr1 Tags : 196608 num_pr0 : 12288
 SAE Count : 0
 Inter-Core Inteference in Data Store : 40023315
Heartbeat CPU 1 instructions: 170000000 cycles: 107957085 heartbeat IPC: 1.81412 cumulative IPC: 1.5747 (Simulation time: 17 hr 10 min 11 sec) 
 Total Blocks : 196608 Invalid Blocks : 0 Valid Blocks : 196608
 Total Tags : 491520 Threshold : 12288 Invalid Tags : 196608 Pr0 Tags : 98304 Pr1 Tags : 196608 num_pr0 : 12288
 SAE Count : 0
 Inter-Core Inteference in Data Store : 40047144
Heartbeat CPU 2 instructions: 170000000 cycles: 107963755 heartbeat IPC: 1.81386 cumulative IPC: 1.5746 (Simulation time: 17 hr 10 min 17 sec) 
 Total Blocks : 196608 Invalid Blocks : 0 Valid Blocks : 196608
 Total Tags : 491520 Threshold : 12288 Invalid Tags : 196608 Pr0 Tags : 98304 Pr1 Tags : 196608 num_pr0 : 12288
 SAE Count : 0
 Inter-Core Inteference in Data Store : 40050830
Heartbeat CPU 4 instructions: 170000001 cycles: 107985911 heartbeat IPC: 1.8134 cumulative IPC: 1.57428 (Simulation time: 17 hr 10 min 34 sec) 
 Total Blocks : 196608 Invalid Blocks : 0 Valid Blocks : 196608
 Total Tags : 491520 Threshold : 12288 Invalid Tags : 196609 Pr0 Tags : 98303 Pr1 Tags : 196608 num_pr0 : 12288
 SAE Count : 0
 Inter-Core Inteference in Data Store : 40062343
Heartbeat CPU 5 instructions: 170000000 cycles: 107987166 heartbeat IPC: 1.81318 cumulative IPC: 1.57426 (Simulation time: 17 hr 10 min 35 sec) 
 Total Blocks : 196608 Invalid Blocks : 0 Valid Blocks : 196608
 Total Tags : 491520 Threshold : 12288 Invalid Tags : 196608 Pr0 Tags : 98304 Pr1 Tags : 196608 num_pr0 : 12288
 SAE Count : 0
 Inter-Core Inteference in Data Store : 40062980
Heartbeat CPU 6 instructions: 170000000 cycles: 108015181 heartbeat IPC: 1.81296 cumulative IPC: 1.57385 (Simulation time: 17 hr 10 min 58 sec) 
 Total Blocks : 196608 Invalid Blocks : 0 Valid Blocks : 196608
 Total Tags : 491520 Threshold : 12288 Invalid Tags : 196608 Pr0 Tags : 98304 Pr1 Tags : 196608 num_pr0 : 12288
 SAE Count : 0
 Inter-Core Inteference in Data Store : 40077805
Heartbeat CPU 7 instructions: 170000000 cycles: 108016109 heartbeat IPC: 1.81289 cumulative IPC: 1.57384 (Simulation time: 17 hr 10 min 59 sec) 
 Total Blocks : 196608 Invalid Blocks : 0 Valid Blocks : 196608
 Total Tags : 491520 Threshold : 12288 Invalid Tags : 196608 Pr0 Tags : 98304 Pr1 Tags : 196608 num_pr0 : 12288
 SAE Count : 0
 Inter-Core Inteference in Data Store : 40078345
Heartbeat CPU 3 instructions: 180000003 cycles: 113384238 heartbeat IPC: 1.82445 cumulative IPC: 1.58752 (Simulation time: 18 hr 25 min 1 sec) 
 Total Blocks : 196608 Invalid Blocks : 0 Valid Blocks : 196608
 Total Tags : 491520 Threshold : 12288 Invalid Tags : 196608 Pr0 Tags : 98304 Pr1 Tags : 196608 num_pr0 : 12288
 SAE Count : 0
 Inter-Core Inteference in Data Store : 42837792
Heartbeat CPU 0 instructions: 180000003 cycles: 113393876 heartbeat IPC: 1.82441 cumulative IPC: 1.58739 (Simulation time: 18 hr 25 min 8 sec) 
 Total Blocks : 196608 Invalid Blocks : 0 Valid Blocks : 196608
 Total Tags : 491520 Threshold : 12288 Invalid Tags : 196608 Pr0 Tags : 98304 Pr1 Tags : 196608 num_pr0 : 12288
 SAE Count : 0
 Inter-Core Inteference in Data Store : 42842804
Heartbeat CPU 1 instructions: 180000003 cycles: 113439773 heartbeat IPC: 1.82392 cumulative IPC: 1.58675 (Simulation time: 18 hr 25 min 40 sec) 
 Total Blocks : 196608 Invalid Blocks : 0 Valid Blocks : 196608
 Total Tags : 491520 Threshold : 12288 Invalid Tags : 196608 Pr0 Tags : 98304 Pr1 Tags : 196608 num_pr0 : 12288
 SAE Count : 0
 Inter-Core Inteference in Data Store : 42866151
Heartbeat CPU 2 instructions: 180000003 cycles: 113446972 heartbeat IPC: 1.82375 cumulative IPC: 1.58664 (Simulation time: 18 hr 25 min 44 sec) 
 Total Blocks : 196608 Invalid Blocks : 0 Valid Blocks : 196608
 Total Tags : 491520 Threshold : 12288 Invalid Tags : 196608 Pr0 Tags : 98304 Pr1 Tags : 196608 num_pr0 : 12288
 SAE Count : 0
 Inter-Core Inteference in Data Store : 42870061
Heartbeat CPU 4 instructions: 180000003 cycles: 113470754 heartbeat IPC: 1.82321 cumulative IPC: 1.58631 (Simulation time: 18 hr 26 min 2 sec) 
 Total Blocks : 196608 Invalid Blocks : 0 Valid Blocks : 196608
 Total Tags : 491520 Threshold : 12288 Invalid Tags : 196608 Pr0 Tags : 98304 Pr1 Tags : 196608 num_pr0 : 12288
 SAE Count : 0
 Inter-Core Inteference in Data Store : 42882441
Heartbeat CPU 5 instructions: 180000003 cycles: 113472551 heartbeat IPC: 1.82303 cumulative IPC: 1.58629 (Simulation time: 18 hr 26 min 3 sec) 
 Total Blocks : 196608 Invalid Blocks : 0 Valid Blocks : 196608
 Total Tags : 491520 Threshold : 12288 Invalid Tags : 196608 Pr0 Tags : 98304 Pr1 Tags : 196608 num_pr0 : 12288
 SAE Count : 0
 Inter-Core Inteference in Data Store : 42883309
Heartbeat CPU 6 instructions: 180000003 cycles: 113501505 heartbeat IPC: 1.82271 cumulative IPC: 1.58588 (Simulation time: 18 hr 26 min 31 sec) 
 Total Blocks : 196608 Invalid Blocks : 0 Valid Blocks : 196608
 Total Tags : 491520 Threshold : 12288 Invalid Tags : 196608 Pr0 Tags : 98304 Pr1 Tags : 196608 num_pr0 : 12288
 SAE Count : 0
 Inter-Core Inteference in Data Store : 42898387
Heartbeat CPU 7 instructions: 180000003 cycles: 113503039 heartbeat IPC: 1.82251 cumulative IPC: 1.58586 (Simulation time: 18 hr 26 min 32 sec) 
 Total Blocks : 196608 Invalid Blocks : 0 Valid Blocks : 196608
 Total Tags : 491520 Threshold : 12288 Invalid Tags : 196608 Pr0 Tags : 98304 Pr1 Tags : 196608 num_pr0 : 12288
 SAE Count : 0
 Inter-Core Inteference in Data Store : 42899180
Heartbeat CPU 3 instructions: 190000000 cycles: 118845816 heartbeat IPC: 1.83097 cumulative IPC: 1.59871 (Simulation time: 19 hr 34 min 14 sec) 
 Total Blocks : 196608 Invalid Blocks : 0 Valid Blocks : 196608
 Total Tags : 491520 Threshold : 12288 Invalid Tags : 196608 Pr0 Tags : 98304 Pr1 Tags : 196608 num_pr0 : 12288
 SAE Count : 0
 Inter-Core Inteference in Data Store : 45484065
Heartbeat CPU 0 instructions: 190000000 cycles: 118855549 heartbeat IPC: 1.83094 cumulative IPC: 1.59858 (Simulation time: 19 hr 34 min 24 sec) 
 Total Blocks : 196608 Invalid Blocks : 0 Valid Blocks : 196608
 Total Tags : 491520 Threshold : 12288 Invalid Tags : 196609 Pr0 Tags : 98303 Pr1 Tags : 196608 num_pr0 : 12288
 SAE Count : 0
 Inter-Core Inteference in Data Store : 45489714
Heartbeat CPU 1 instructions: 190000000 cycles: 118902558 heartbeat IPC: 1.83057 cumulative IPC: 1.59795 (Simulation time: 19 hr 35 min 10 sec) 
 Total Blocks : 196608 Invalid Blocks : 0 Valid Blocks : 196608
 Total Tags : 491520 Threshold : 12288 Invalid Tags : 196608 Pr0 Tags : 98304 Pr1 Tags : 196608 num_pr0 : 12288
 SAE Count : 0
 Inter-Core Inteference in Data Store : 45516595
Heartbeat CPU 2 instructions: 190000000 cycles: 118910793 heartbeat IPC: 1.83022 cumulative IPC: 1.59784 (Simulation time: 19 hr 35 min 19 sec) 
 Total Blocks : 196608 Invalid Blocks : 0 Valid Blocks : 196608
 Total Tags : 491520 Threshold : 12288 Invalid Tags : 196608 Pr0 Tags : 98304 Pr1 Tags : 196608 num_pr0 : 12288
 SAE Count : 0
 Inter-Core Inteference in Data Store : 45521265
Heartbeat CPU 4 instructions: 190000000 cycles: 118935847 heartbeat IPC: 1.82979 cumulative IPC: 1.5975 (Simulation time: 19 hr 35 min 46 sec) 
 Total Blocks : 196608 Invalid Blocks : 0 Valid Blocks : 196608
 Total Tags : 491520 Threshold : 12288 Invalid Tags : 196608 Pr0 Tags : 98304 Pr1 Tags : 196608 num_pr0 : 12288
 SAE Count : 0
 Inter-Core Inteference in Data Store : 45535097
Heartbeat CPU 5 instructions: 190000000 cycles: 118938429 heartbeat IPC: 1.82953 cumulative IPC: 1.59747 (Simulation time: 19 hr 35 min 50 sec) 
 Total Blocks : 196608 Invalid Blocks : 0 Valid Blocks : 196608
 Total Tags : 491520 Threshold : 12288 Invalid Tags : 196608 Pr0 Tags : 98304 Pr1 Tags : 196608 num_pr0 : 12288
 SAE Count : 0
 Inter-Core Inteference in Data Store : 45536555
Heartbeat CPU 6 instructions: 190000000 cycles: 118967475 heartbeat IPC: 1.8295 cumulative IPC: 1.59708 (Simulation time: 19 hr 36 min 22 sec) 
 Total Blocks : 196608 Invalid Blocks : 0 Valid Blocks : 196608
 Total Tags : 491520 Threshold : 12288 Invalid Tags : 196609 Pr0 Tags : 98303 Pr1 Tags : 196608 num_pr0 : 12288
 SAE Count : 0
 Inter-Core Inteference in Data Store : 45553743
Heartbeat CPU 7 instructions: 190000000 cycles: 118969620 heartbeat IPC: 1.8293 cumulative IPC: 1.59705 (Simulation time: 19 hr 36 min 24 sec) 
 Total Blocks : 196608 Invalid Blocks : 0 Valid Blocks : 196608
 Total Tags : 491520 Threshold : 12288 Invalid Tags : 196608 Pr0 Tags : 98304 Pr1 Tags : 196608 num_pr0 : 12288
 SAE Count : 0
 Inter-Core Inteference in Data Store : 45554929
Heartbeat CPU 3 instructions: 200000000 cycles: 124241260 heartbeat IPC: 1.85342 cumulative IPC: 1.60977 (Simulation time: 20 hr 48 min 9 sec) 
 Total Blocks : 196608 Invalid Blocks : 0 Valid Blocks : 196608
 Total Tags : 491520 Threshold : 12288 Invalid Tags : 196608 Pr0 Tags : 98304 Pr1 Tags : 196608 num_pr0 : 12288
 SAE Count : 0
 Inter-Core Inteference in Data Store : 48429371
Heartbeat CPU 0 instructions: 200000000 cycles: 124251065 heartbeat IPC: 1.85339 cumulative IPC: 1.60964 (Simulation time: 20 hr 48 min 17 sec) 
 Total Blocks : 196608 Invalid Blocks : 0 Valid Blocks : 196608
 Total Tags : 491520 Threshold : 12288 Invalid Tags : 196609 Pr0 Tags : 98303 Pr1 Tags : 196608 num_pr0 : 12288
 SAE Count : 0
 Inter-Core Inteference in Data Store : 48432629
Heartbeat CPU 1 instructions: 200000000 cycles: 124299601 heartbeat IPC: 1.85287 cumulative IPC: 1.60902 (Simulation time: 20 hr 48 min 53 sec) 
 Total Blocks : 196608 Invalid Blocks : 0 Valid Blocks : 196608
 Total Tags : 491520 Threshold : 12288 Invalid Tags : 196608 Pr0 Tags : 98304 Pr1 Tags : 196608 num_pr0 : 12288
 SAE Count : 0
 Inter-Core Inteference in Data Store : 48450680
Heartbeat CPU 2 instructions: 200000000 cycles: 124308719 heartbeat IPC: 1.85256 cumulative IPC: 1.6089 (Simulation time: 20 hr 49 min 2 sec) 
 Total Blocks : 196608 Invalid Blocks : 0 Valid Blocks : 196608
 Total Tags : 491520 Threshold : 12288 Invalid Tags : 196608 Pr0 Tags : 98304 Pr1 Tags : 196608 num_pr0 : 12288
 SAE Count : 0
 Inter-Core Inteference in Data Store : 48454893
Heartbeat CPU 4 instructions: 200000000 cycles: 124335334 heartbeat IPC: 1.85203 cumulative IPC: 1.60855 (Simulation time: 20 hr 49 min 22 sec) 
 Total Blocks : 196608 Invalid Blocks : 0 Valid Blocks : 196608
 Total Tags : 491520 Threshold : 12288 Invalid Tags : 196608 Pr0 Tags : 98304 Pr1 Tags : 196608 num_pr0 : 12288
 SAE Count : 0
 Inter-Core Inteference in Data Store : 48467737
Heartbeat CPU 5 instructions: 200000000 cycles: 124338748 heartbeat IPC: 1.85174 cumulative IPC: 1.60851 (Simulation time: 20 hr 49 min 25 sec) 
 Total Blocks : 196608 Invalid Blocks : 0 Valid Blocks : 196608
 Total Tags : 491520 Threshold : 12288 Invalid Tags : 196608 Pr0 Tags : 98304 Pr1 Tags : 196608 num_pr0 : 12288
 SAE Count : 0
 Inter-Core Inteference in Data Store : 48469741
Heartbeat CPU 6 instructions: 200000000 cycles: 124368223 heartbeat IPC: 1.8516 cumulative IPC: 1.60813 (Simulation time: 20 hr 49 min 55 sec) 
 Total Blocks : 196608 Invalid Blocks : 0 Valid Blocks : 196608
 Total Tags : 491520 Threshold : 12288 Invalid Tags : 196608 Pr0 Tags : 98304 Pr1 Tags : 196608 num_pr0 : 12288
 SAE Count : 0
 Inter-Core Inteference in Data Store : 48487760
Heartbeat CPU 7 instructions: 200000000 cycles: 124370744 heartbeat IPC: 1.85147 cumulative IPC: 1.6081 (Simulation time: 20 hr 49 min 56 sec) 
 Total Blocks : 196608 Invalid Blocks : 0 Valid Blocks : 196608
 Total Tags : 491520 Threshold : 12288 Invalid Tags : 196608 Pr0 Tags : 98304 Pr1 Tags : 196608 num_pr0 : 12288
 SAE Count : 0
 Inter-Core Inteference in Data Store : 48489279

Warmup complete CPU 0 instructions: 200224304 cycles: 124370745 (Simulation time: 20 hr 49 min 56 sec) 
Warmup complete CPU 1 instructions: 200134177 cycles: 124370745 (Simulation time: 20 hr 49 min 56 sec) 
Warmup complete CPU 2 instructions: 200117316 cycles: 124370745 (Simulation time: 20 hr 49 min 56 sec) 
Warmup complete CPU 3 instructions: 200243233 cycles: 124370745 (Simulation time: 20 hr 49 min 56 sec) 
Warmup complete CPU 4 instructions: 200067269 cycles: 124370745 (Simulation time: 20 hr 49 min 56 sec) 
Warmup complete CPU 5 instructions: 200060265 cycles: 124370745 (Simulation time: 20 hr 49 min 56 sec) 
Warmup complete CPU 6 instructions: 200004642 cycles: 124370745 (Simulation time: 20 hr 49 min 56 sec) 
Warmup complete CPU 7 instructions: 200000004 cycles: 124370745 (Simulation time: 20 hr 49 min 56 sec) 

Heartbeat CPU 0 instructions: 210000000 cycles: 213702664 heartbeat IPC: 0.111792 cumulative IPC: 0.109431 (Simulation time: 23 hr 52 min 26 sec) 
 Total Blocks : 196608 Invalid Blocks : 0 Valid Blocks : 196608
 Total Tags : 491520 Threshold : 12288 Invalid Tags : 196608 Pr0 Tags : 98304 Pr1 Tags : 196608 num_pr0 : 12288
 SAE Count : 0
 Inter-Core Inteference in Data Store : 2706106
Heartbeat CPU 3 instructions: 210000000 cycles: 213797562 heartbeat IPC: 0.111662 cumulative IPC: 0.109103 (Simulation time: 23 hr 52 min 37 sec) 
 Total Blocks : 196608 Invalid Blocks : 0 Valid Blocks : 196608
 Total Tags : 491520 Threshold : 12288 Invalid Tags : 196608 Pr0 Tags : 98304 Pr1 Tags : 196608 num_pr0 : 12288
 SAE Count : 0
 Inter-Core Inteference in Data Store : 2709162
Heartbeat CPU 2 instructions: 210000000 cycles: 214355702 heartbeat IPC: 0.111053 cumulative IPC: 0.109826 (Simulation time: 23 hr 53 min 49 sec) 
 Total Blocks : 196608 Invalid Blocks : 0 Valid Blocks : 196608
 Total Tags : 491520 Threshold : 12288 Invalid Tags : 196608 Pr0 Tags : 98304 Pr1 Tags : 196608 num_pr0 : 12288
 SAE Count : 0
 Inter-Core Inteference in Data Store : 2726571
Heartbeat CPU 1 instructions: 210000000 cycles: 214383940 heartbeat IPC: 0.111007 cumulative IPC: 0.109604 (Simulation time: 23 hr 53 min 53 sec) 
 Total Blocks : 196608 Invalid Blocks : 0 Valid Blocks : 196608
 Total Tags : 491520 Threshold : 12288 Invalid Tags : 196608 Pr0 Tags : 98304 Pr1 Tags : 196608 num_pr0 : 12288
 SAE Count : 0
 Inter-Core Inteference in Data Store : 2727407
Heartbeat CPU 4 instructions: 210000000 cycles: 215156871 heartbeat IPC: 0.110106 cumulative IPC: 0.109408 (Simulation time: 23 hr 55 min 28 sec) 
 Total Blocks : 196608 Invalid Blocks : 0 Valid Blocks : 196608
 Total Tags : 491520 Threshold : 12288 Invalid Tags : 196608 Pr0 Tags : 98304 Pr1 Tags : 196608 num_pr0 : 12288
 SAE Count : 0
 Inter-Core Inteference in Data Store : 2752224
Heartbeat CPU 5 instructions: 210000000 cycles: 215431298 heartbeat IPC: 0.109778 cumulative IPC: 0.109155 (Simulation time: 23 hr 56 min 1 sec) 
 Total Blocks : 196608 Invalid Blocks : 0 Valid Blocks : 196608
 Total Tags : 491520 Threshold : 12288 Invalid Tags : 196608 Pr0 Tags : 98304 Pr1 Tags : 196608 num_pr0 : 12288
 SAE Count : 0
 Inter-Core Inteference in Data Store : 2761489
Heartbeat CPU 6 instructions: 210000000 cycles: 215605436 heartbeat IPC: 0.109604 cumulative IPC: 0.109557 (Simulation time: 23 hr 56 min 22 sec) 
 Total Blocks : 196608 Invalid Blocks : 0 Valid Blocks : 196608
 Total Tags : 491520 Threshold : 12288 Invalid Tags : 196608 Pr0 Tags : 98304 Pr1 Tags : 196608 num_pr0 : 12288
 SAE Count : 0
 Inter-Core Inteference in Data Store : 2767173
Heartbeat CPU 7 instructions: 210000000 cycles: 215770076 heartbeat IPC: 0.10941 cumulative IPC: 0.10941 (Simulation time: 23 hr 56 min 39 sec) 
 Total Blocks : 196608 Invalid Blocks : 0 Valid Blocks : 196608
 Total Tags : 491520 Threshold : 12288 Invalid Tags : 196608 Pr0 Tags : 98304 Pr1 Tags : 196608 num_pr0 : 12288
 SAE Count : 0
 Inter-Core Inteference in Data Store : 2772158
Heartbeat CPU 0 instructions: 220000000 cycles: 305831608 heartbeat IPC: 0.108544 cumulative IPC: 0.10898 (Simulation time: 26 hr 53 min 4 sec) 
 Total Blocks : 196608 Invalid Blocks : 0 Valid Blocks : 196608
 Total Tags : 491520 Threshold : 12288 Invalid Tags : 196608 Pr0 Tags : 98304 Pr1 Tags : 196608 num_pr0 : 12288
 SAE Count : 0
 Inter-Core Inteference in Data Store : 5548809
Heartbeat CPU 3 instructions: 220000000 cycles: 305900937 heartbeat IPC: 0.108574 cumulative IPC: 0.108835 (Simulation time: 26 hr 53 min 13 sec) 
 Total Blocks : 196608 Invalid Blocks : 0 Valid Blocks : 196608
 Total Tags : 491520 Threshold : 12288 Invalid Tags : 196608 Pr0 Tags : 98304 Pr1 Tags : 196608 num_pr0 : 12288
 SAE Count : 0
 Inter-Core Inteference in Data Store : 5551006
Heartbeat CPU 1 instructions: 220000000 cycles: 306520558 heartbeat IPC: 0.108534 cumulative IPC: 0.109063 (Simulation time: 26 hr 54 min 22 sec) 
 Total Blocks : 196608 Invalid Blocks : 0 Valid Blocks : 196608
 Total Tags : 491520 Threshold : 12288 Invalid Tags : 196608 Pr0 Tags : 98304 Pr1 Tags : 196608 num_pr0 : 12288
 SAE Count : 0
 Inter-Core Inteference in Data Store : 5570324
Heartbeat CPU 2 instructions: 220000000 cycles: 306625544 heartbeat IPC: 0.108378 cumulative IPC: 0.109093 (Simulation time: 26 hr 54 min 35 sec) 
 Total Blocks : 196608 Invalid Blocks : 0 Valid Blocks : 196608
 Total Tags : 491520 Threshold : 12288 Invalid Tags : 196608 Pr0 Tags : 98304 Pr1 Tags : 196608 num_pr0 : 12288
 SAE Count : 0
 Inter-Core Inteference in Data Store : 5573606
Heartbeat CPU 6 instructions: 220000000 cycles: 307224593 heartbeat IPC: 0.109147 cumulative IPC: 0.109352 (Simulation time: 26 hr 55 min 43 sec) 
 Total Blocks : 196608 Invalid Blocks : 0 Valid Blocks : 196608
 Total Tags : 491520 Threshold : 12288 Invalid Tags : 196608 Pr0 Tags : 98304 Pr1 Tags : 196608 num_pr0 : 12288
 SAE Count : 0
 Inter-Core Inteference in Data Store : 5593560
Heartbeat CPU 5 instructions: 220000000 cycles: 307348252 heartbeat IPC: 0.108794 cumulative IPC: 0.108974 (Simulation time: 26 hr 55 min 58 sec) 
 Total Blocks : 196608 Invalid Blocks : 0 Valid Blocks : 196608
 Total Tags : 491520 Threshold : 12288 Invalid Tags : 196608 Pr0 Tags : 98304 Pr1 Tags : 196608 num_pr0 : 12288
 SAE Count : 0
 Inter-Core Inteference in Data Store : 5597675
Heartbeat CPU 4 instructions: 220000000 cycles: 307349338 heartbeat IPC: 0.108469 cumulative IPC: 0.108935 (Simulation time: 26 hr 55 min 58 sec) 
 Total Blocks : 196608 Invalid Blocks : 0 Valid Blocks : 196608
 Total Tags : 491520 Threshold : 12288 Invalid Tags : 196608 Pr0 Tags : 98304 Pr1 Tags : 196608 num_pr0 : 12288
 SAE Count : 0
 Inter-Core Inteference in Data Store : 5597725
Heartbeat CPU 7 instructions: 220000000 cycles: 308067293 heartbeat IPC: 0.108346 cumulative IPC: 0.108875 (Simulation time: 26 hr 57 min 24 sec) 
 Total Blocks : 196608 Invalid Blocks : 0 Valid Blocks : 196608
 Total Tags : 491520 Threshold : 12288 Invalid Tags : 196608 Pr0 Tags : 98304 Pr1 Tags : 196608 num_pr0 : 12288
 SAE Count : 0
 Inter-Core Inteference in Data Store : 5621712
Heartbeat CPU 0 instructions: 230000002 cycles: 398264677 heartbeat IPC: 0.108186 cumulative IPC: 0.108713 (Simulation time: 29 hr 47 min 45 sec) 
 Total Blocks : 196608 Invalid Blocks : 0 Valid Blocks : 196608
 Total Tags : 491520 Threshold : 12288 Invalid Tags : 196608 Pr0 Tags : 98304 Pr1 Tags : 196608 num_pr0 : 12288
 SAE Count : 0
 Inter-Core Inteference in Data Store : 8457177
Heartbeat CPU 3 instructions: 230000000 cycles: 398320767 heartbeat IPC: 0.108202 cumulative IPC: 0.108621 (Simulation time: 29 hr 47 min 50 sec) 
 Total Blocks : 196608 Invalid Blocks : 0 Valid Blocks : 196608
 Total Tags : 491520 Threshold : 12288 Invalid Tags : 196608 Pr0 Tags : 98304 Pr1 Tags : 196608 num_pr0 : 12288
 SAE Count : 0
 Inter-Core Inteference in Data Store : 8458990
Heartbeat CPU 2 instructions: 230000002 cycles: 399063459 heartbeat IPC: 0.108181 cumulative IPC: 0.108786 (Simulation time: 29 hr 49 min 16 sec) 
 Total Blocks : 196608 Invalid Blocks : 0 Valid Blocks : 196608
 Total Tags : 491520 Threshold : 12288 Invalid Tags : 196608 Pr0 Tags : 98304 Pr1 Tags : 196608 num_pr0 : 12288
 SAE Count : 0
 Inter-Core Inteference in Data Store : 8482111
Heartbeat CPU 1 instructions: 230000000 cycles: 399147420 heartbeat IPC: 0.10796 cumulative IPC: 0.108691 (Simulation time: 29 hr 49 min 27 sec) 
 Total Blocks : 196608 Invalid Blocks : 0 Valid Blocks : 196608
 Total Tags : 491520 Threshold : 12288 Invalid Tags : 196608 Pr0 Tags : 98304 Pr1 Tags : 196608 num_pr0 : 12288
 SAE Count : 0
 Inter-Core Inteference in Data Store : 8484782
Heartbeat CPU 4 instructions: 230000002 cycles: 399350078 heartbeat IPC: 0.108695 cumulative IPC: 0.108854 (Simulation time: 29 hr 49 min 50 sec) 
 Total Blocks : 196608 Invalid Blocks : 0 Valid Blocks : 196608
 Total Tags : 491520 Threshold : 12288 Invalid Tags : 196608 Pr0 Tags : 98304 Pr1 Tags : 196608 num_pr0 : 12288
 SAE Count : 0
 Inter-Core Inteference in Data Store : 8491376
Heartbeat CPU 6 instructions: 230000002 cycles: 399478387 heartbeat IPC: 0.108397 cumulative IPC: 0.109031 (Simulation time: 29 hr 50 min 5 sec) 
 Total Blocks : 196608 Invalid Blocks : 0 Valid Blocks : 196608
 Total Tags : 491520 Threshold : 12288 Invalid Tags : 196608 Pr0 Tags : 98304 Pr1 Tags : 196608 num_pr0 : 12288
 SAE Count : 0
 Inter-Core Inteference in Data Store : 8495495
Heartbeat CPU 5 instructions: 230000000 cycles: 399834871 heartbeat IPC: 0.108124 cumulative IPC: 0.108688 (Simulation time: 29 hr 50 min 48 sec) 
 Total Blocks : 196608 Invalid Blocks : 0 Valid Blocks : 196608
 Total Tags : 491520 Threshold : 12288 Invalid Tags : 196608 Pr0 Tags : 98304 Pr1 Tags : 196608 num_pr0 : 12288
 SAE Count : 0
 Inter-Core Inteference in Data Store : 8506721
Heartbeat CPU 7 instructions: 230000000 cycles: 400237117 heartbeat IPC: 0.108495 cumulative IPC: 0.108748 (Simulation time: 29 hr 51 min 37 sec) 
 Total Blocks : 196608 Invalid Blocks : 0 Valid Blocks : 196608
 Total Tags : 491520 Threshold : 12288 Invalid Tags : 196608 Pr0 Tags : 98304 Pr1 Tags : 196608 num_pr0 : 12288
 SAE Count : 0
 Inter-Core Inteference in Data Store : 8519688
Heartbeat CPU 0 instructions: 240000000 cycles: 488649876 heartbeat IPC: 0.110638 cumulative IPC: 0.10919 (Simulation time: 44 hr 40 min 4 sec) 
 Total Blocks : 196608 Invalid Blocks : 0 Valid Blocks : 196608
 Total Tags : 491520 Threshold : 12288 Invalid Tags : 196608 Pr0 Tags : 98304 Pr1 Tags : 196608 num_pr0 : 12288
 SAE Count : 0
 Inter-Core Inteference in Data Store : 11130447
Heartbeat CPU 3 instructions: 240000002 cycles: 488744978 heartbeat IPC: 0.11059 cumulative IPC: 0.10911 (Simulation time: 44 hr 46 min 51 sec) 
 Total Blocks : 196608 Invalid Blocks : 0 Valid Blocks : 196608
 Total Tags : 491520 Threshold : 12288 Invalid Tags : 196608 Pr0 Tags : 98304 Pr1 Tags : 196608 num_pr0 : 12288
 SAE Count : 0
 Inter-Core Inteference in Data Store : 11133378
Heartbeat CPU 2 instructions: 240000002 cycles: 488954424 heartbeat IPC: 0.111246 cumulative IPC: 0.109392 (Simulation time: 44 hr 59 min 55 sec) 
 Total Blocks : 196608 Invalid Blocks : 0 Valid Blocks : 196608
 Total Tags : 491520 Threshold : 12288 Invalid Tags : 196608 Pr0 Tags : 98304 Pr1 Tags : 196608 num_pr0 : 12288
 SAE Count : 0
 Inter-Core Inteference in Data Store : 11139812
Heartbeat CPU 1 instructions: 240000002 cycles: 489236777 heartbeat IPC: 0.111001 cumulative IPC: 0.109262 (Simulation time: 45 hr 20 min 28 sec) 
 Total Blocks : 196608 Invalid Blocks : 0 Valid Blocks : 196608
 Total Tags : 491520 Threshold : 12288 Invalid Tags : 196608 Pr0 Tags : 98304 Pr1 Tags : 196608 num_pr0 : 12288
 SAE Count : 0
 Inter-Core Inteference in Data Store : 11148509
Heartbeat CPU 4 instructions: 240000002 cycles: 489363664 heartbeat IPC: 0.111094 cumulative IPC: 0.109407 (Simulation time: 45 hr 28 min 42 sec) 
 Total Blocks : 196608 Invalid Blocks : 0 Valid Blocks : 196608
 Total Tags : 491520 Threshold : 12288 Invalid Tags : 196608 Pr0 Tags : 98304 Pr1 Tags : 196608 num_pr0 : 12288
 SAE Count : 0
 Inter-Core Inteference in Data Store : 11152485
Heartbeat CPU 6 instructions: 240000000 cycles: 489610267 heartbeat IPC: 0.110949 cumulative IPC: 0.109504 (Simulation time: 45 hr 45 min 24 sec) 
 Total Blocks : 196608 Invalid Blocks : 0 Valid Blocks : 196608
 Total Tags : 491520 Threshold : 12288 Invalid Tags : 196608 Pr0 Tags : 98304 Pr1 Tags : 196608 num_pr0 : 12288
 SAE Count : 0
 Inter-Core Inteference in Data Store : 11159947
Heartbeat CPU 5 instructions: 240000000 cycles: 489969580 heartbeat IPC: 0.110945 cumulative IPC: 0.109245 (Simulation time: 46 hr 8 min 34 sec) 
 Total Blocks : 196608 Invalid Blocks : 0 Valid Blocks : 196608
 Total Tags : 491520 Threshold : 12288 Invalid Tags : 196608 Pr0 Tags : 98304 Pr1 Tags : 196608 num_pr0 : 12288
 SAE Count : 0
 Inter-Core Inteference in Data Store : 11170547
Heartbeat CPU 7 instructions: 240000002 cycles: 490125591 heartbeat IPC: 0.111249 cumulative IPC: 0.109363 (Simulation time: 46 hr 18 min 1 sec) 
 Total Blocks : 196608 Invalid Blocks : 0 Valid Blocks : 196608
 Total Tags : 491520 Threshold : 12288 Invalid Tags : 196608 Pr0 Tags : 98304 Pr1 Tags : 196608 num_pr0 : 12288
 SAE Count : 0
 Inter-Core Inteference in Data Store : 11175216
Heartbeat CPU 2 instructions: 250000003 cycles: 579991535 heartbeat IPC: 0.109845 cumulative IPC: 0.109483 (Simulation time: 81 hr 40 min 9 sec) 
 Total Blocks : 196608 Invalid Blocks : 0 Valid Blocks : 196608
 Total Tags : 491520 Threshold : 12288 Invalid Tags : 196608 Pr0 Tags : 98304 Pr1 Tags : 196608 num_pr0 : 12288
 SAE Count : 0
 Inter-Core Inteference in Data Store : 14010335
Heartbeat CPU 0 instructions: 250000003 cycles: 580064926 heartbeat IPC: 0.109391 cumulative IPC: 0.10923 (Simulation time: 81 hr 40 min 43 sec) 
 Total Blocks : 196608 Invalid Blocks : 0 Valid Blocks : 196608
 Total Tags : 491520 Threshold : 12288 Invalid Tags : 196608 Pr0 Tags : 98304 Pr1 Tags : 196608 num_pr0 : 12288
 SAE Count : 0
 Inter-Core Inteference in Data Store : 14012795
Heartbeat CPU 1 instructions: 250000003 cycles: 580134391 heartbeat IPC: 0.110014 cumulative IPC: 0.109412 (Simulation time: 81 hr 41 min 46 sec) 
 Total Blocks : 196608 Invalid Blocks : 0 Valid Blocks : 196608
 Total Tags : 491520 Threshold : 12288 Invalid Tags : 196608 Pr0 Tags : 98304 Pr1 Tags : 196608 num_pr0 : 12288
 SAE Count : 0
 Inter-Core Inteference in Data Store : 14015059
Heartbeat CPU 6 instructions: 250000003 cycles: 580364653 heartbeat IPC: 0.110188 cumulative IPC: 0.10964 (Simulation time: 81 hr 44 min 44 sec) 
 Total Blocks : 196608 Invalid Blocks : 0 Valid Blocks : 196608
 Total Tags : 491520 Threshold : 12288 Invalid Tags : 196608 Pr0 Tags : 98304 Pr1 Tags : 196608 num_pr0 : 12288
 SAE Count : 0
 Inter-Core Inteference in Data Store : 14022715
Heartbeat CPU 3 instructions: 250000003 cycles: 580389071 heartbeat IPC: 0.109118 cumulative IPC: 0.109111 (Simulation time: 81 hr 44 min 54 sec) 
 Total Blocks : 196608 Invalid Blocks : 0 Valid Blocks : 196608
 Total Tags : 491520 Threshold : 12288 Invalid Tags : 196608 Pr0 Tags : 98304 Pr1 Tags : 196608 num_pr0 : 12288
 SAE Count : 0
 Inter-Core Inteference in Data Store : 14023517
Heartbeat CPU 4 instructions: 250000003 cycles: 580524753 heartbeat IPC: 0.109696 cumulative IPC: 0.109465 (Simulation time: 81 hr 45 min 48 sec) 
 Total Blocks : 196608 Invalid Blocks : 0 Valid Blocks : 196608
 Total Tags : 491520 Threshold : 12288 Invalid Tags : 196608 Pr0 Tags : 98304 Pr1 Tags : 196608 num_pr0 : 12288
 SAE Count : 0
 Inter-Core Inteference in Data Store : 14027930
Heartbeat CPU 7 instructions: 250000003 cycles: 580960905 heartbeat IPC: 0.110089 cumulative IPC: 0.109507 (Simulation time: 81 hr 51 min 26 sec) 
 Total Blocks : 196608 Invalid Blocks : 0 Valid Blocks : 196608
[...]
LLC4 RFO       ACCESS: 11580  HIT:  4097  MISS:  7483  HIT %: 35.38  MISS %: 64.62  AVERAGE MISS PENALTY: 677.354
LLC4 PREFETCH  ACCESS: 5505543  HIT: 2460435  MISS: 3045108  HIT %: 44.6901  MISS %: 55.3099  AVERAGE MISS PENALTY: 726.636
LLC4 WRITEBACK ACCESS: 52141  HIT: 24670  MISS: 27471  HIT %: 47.314  MISS %: 52.686  AVERAGE MISS PENALTY: 0
LLC4 PREFETCH  REQUESTED:     0  ISSUED:     0  USEFUL: 1394068  USELESS: 5336158
 USEFUL LOAD PREFETCHES:    1394068 PREFETCH ISSUED TO LOWER LEVEL: 1145019714  ACCURACY: 0.121751
 TIMELY PREFETCHES:    1394068 LATE PREFETCHES: 0 DROPPED PREFETCHES: 0
LLC4 AVERAGE MISS LATENCY: 719.664 cycles

LLC4 Set Associative Eviction Count : 0
LLC4 Priority 0 entries : 12288
LLC4 Inter-Core Interference : 7318002
LLC5 TOTAL     ACCESS: 6661540  HIT: 3047989  MISS: 3613551  HIT %: 45.755  MISS %: 54.245  AVERAGE MISS PENALTY: 688.664
LLC5 LOAD      ACCESS: 1218414  HIT: 613558  MISS: 604856  HIT %: 50.3571  MISS %: 49.6429  AVERAGE MISS PENALTY: 684.295
LLC5 RFO       ACCESS: 11436  HIT:  4029  MISS:  7407  HIT %: 35.2308  MISS %: 64.7692  AVERAGE MISS PENALTY: 642.068
LLC5 PREFETCH  ACCESS: 5379964  HIT: 2405967  MISS: 2973997  HIT %: 44.7209  MISS %: 55.2791  AVERAGE MISS PENALTY: 695.989
LLC5 WRITEBACK ACCESS: 51726  HIT: 24435  MISS: 27291  HIT %: 47.2393  MISS %: 52.7607  AVERAGE MISS PENALTY: 0
LLC5 PREFETCH  REQUESTED:     0  ISSUED:     0  USEFUL: 1398467  USELESS: 5200763
 USEFUL LOAD PREFETCHES:    1398467 PREFETCH ISSUED TO LOWER LEVEL:  899891389  ACCURACY: 0.155404
 TIMELY PREFETCHES:    1398467 LATE PREFETCHES: 0 DROPPED PREFETCHES: 0
LLC5 AVERAGE MISS LATENCY: 688.664 cycles

LLC5 Set Associative Eviction Count : 0
LLC5 Priority 0 entries : 12288
LLC5 Inter-Core Interference : 7260691
LLC6 TOTAL     ACCESS: 6499747  HIT: 2995985  MISS: 3503762  HIT %: 46.0939  MISS %: 53.9061  AVERAGE MISS PENALTY: 705.287
LLC6 LOAD      ACCESS: 1167365  HIT: 577067  MISS: 590298  HIT %: 49.4333  MISS %: 50.5667  AVERAGE MISS PENALTY: 707.539
LLC6 RFO       ACCESS: 11482  HIT:  4074  MISS:  7408  HIT %: 35.4816  MISS %: 64.5184  AVERAGE MISS PENALTY: 689.175
LLC6 PREFETCH  ACCESS: 5269129  HIT: 2390293  MISS: 2878836  HIT %: 45.3641  MISS %: 54.6359  AVERAGE MISS PENALTY: 711.536
LLC6 WRITEBACK ACCESS: 51771  HIT: 24551  MISS: 27220  HIT %: 47.4223  MISS %: 52.5777  AVERAGE MISS PENALTY: 0
LLC6 PREFETCH  REQUESTED:     0  ISSUED:     0  USEFUL: 1391792  USELESS: 5094760
 USEFUL LOAD PREFETCHES:    1391792 PREFETCH ISSUED TO LOWER LEVEL: 1650049435  ACCURACY: 0.0843485
 TIMELY PREFETCHES:    1391792 LATE PREFETCHES: 0 DROPPED PREFETCHES: 0
LLC6 AVERAGE MISS LATENCY: 705.287 cycles

LLC6 Set Associative Eviction Count : 0
LLC6 Priority 0 entries : 12288
LLC6 Inter-Core Interference : 7132579
LLC7 TOTAL     ACCESS: 6404883  HIT: 2995285  MISS: 3409598  HIT %: 46.7656  MISS %: 53.2344  AVERAGE MISS PENALTY: 680.574
LLC7 LOAD      ACCESS: 1183332  HIT: 593672  MISS: 589660  HIT %: 50.1695  MISS %: 49.8305  AVERAGE MISS PENALTY: 667.592
LLC7 RFO       ACCESS: 11635  HIT:  4111  MISS:  7524  HIT %: 35.333  MISS %: 64.667  AVERAGE MISS PENALTY: 662.669
LLC7 PREFETCH  ACCESS: 5158049  HIT: 2373176  MISS: 2784873  HIT %: 46.0092  MISS %: 53.9908  AVERAGE MISS PENALTY: 690.102
LLC7 WRITEBACK ACCESS: 51867  HIT: 24326  MISS: 27541  HIT %: 46.9007  MISS %: 53.0993  AVERAGE MISS PENALTY: 0
LLC7 PREFETCH  REQUESTED:     0  ISSUED:     0  USEFUL: 1368299  USELESS: 5074507
 USEFUL LOAD PREFETCHES:    1368299 PREFETCH ISSUED TO LOWER LEVEL: 1286022510  ACCURACY: 0.106398
 TIMELY PREFETCHES:    1368299 LATE PREFETCHES: 0 DROPPED PREFETCHES: 0
LLC7 AVERAGE MISS LATENCY: 680.574 cycles

LLC7 Set Associative Eviction Count : 0
LLC7 Priority 0 entries : 12288
LLC7 Inter-Core Interference : 7093737
ROI Average ROB Stall Cycles:	56.7895
ROI Total ROB Stalls Cycles:	1800323573
ROI TOTAL ROB counter      :	31701675
ROI Average Load ROB Stall Cycles:	386.707
ROI Total Load ROB Stalls Cycle  :	1712461052
ROI Total Load ROB stalls Counter:	4428313
Major fault: 0 Minor fault: 58396

CPU 7 cumulative IPC: 0.108479 instructions: 200000002 cycles: 1843672153
ITLB TOTAL     ACCESS: 30310659  HIT: 30310659  MISS:     0  HIT %:   100  MISS %:     0  AVERAGE MISS PENALTY: 0
ITLB LOAD      ACCESS: 30310659  HIT: 30310659  MISS:     0  HIT %:   100  MISS %:     0  AVERAGE MISS PENALTY: 0
ITLB RFO       ACCESS:     0  HIT:     0  MISS:     0  HIT %:     0  MISS %:     0  AVERAGE MISS PENALTY: 0
ITLB PREFETCH  ACCESS:     0  HIT:     0  MISS:     0  HIT %:     0  MISS %:     0  AVERAGE MISS PENALTY: 0
ITLB WRITEBACK ACCESS:     0  HIT:     0  MISS:     0  HIT %:     0  MISS %:     0  AVERAGE MISS PENALTY: 0
ITLB PREFETCH  REQUESTED:     0  ISSUED:     0  USEFUL:     0  USELESS:     0
 USEFUL LOAD PREFETCHES:          0 PREFETCH ISSUED TO LOWER LEVEL:          0  ACCURACY: -nan
 TIMELY PREFETCHES:          0 LATE PREFETCHES: 0 DROPPED PREFETCHES: 0
ITLB AVERAGE MISS LATENCY: -nan cycles

ITLB Set Associative Eviction Count : 0
ITLB Priority 0 entries : 0
ITLB Inter-Core Interference : 0
DTLB TOTAL     ACCESS: 55648024  HIT: 49098852  MISS: 6549172  HIT %: 88.2311  MISS %: 11.7689  AVERAGE MISS PENALTY: 11.0365
DTLB LOAD      ACCESS: 54605129  HIT: 48355814  MISS: 6249315  HIT %: 88.5554  MISS %: 11.4446  AVERAGE MISS PENALTY: 10.8436
DTLB RFO       ACCESS: 1042895  HIT: 743038  MISS: 299857  HIT %: 71.2476  MISS %: 28.7524  AVERAGE MISS PENALTY: 15.0563
DTLB PREFETCH  ACCESS:     0  HIT:     0  MISS:     0  HIT %:     0  MISS %:     0  AVERAGE MISS PENALTY: 0
DTLB WRITEBACK ACCESS:     0  HIT:     0  MISS:     0  HIT %:     0  MISS %:     0  AVERAGE MISS PENALTY: 0
DTLB PREFETCH  REQUESTED:     0  ISSUED:     0  USEFUL:     0  USELESS:     0
 USEFUL LOAD PREFETCHES:          0 PREFETCH ISSUED TO LOWER LEVEL:          0  ACCURACY: -nan
 TIMELY PREFETCHES:          0 LATE PREFETCHES: 0 DROPPED PREFETCHES: 0
DTLB AVERAGE MISS LATENCY: 11.0365 cycles

DTLB Set Associative Eviction Count : 0
DTLB Priority 0 entries : 0
DTLB Inter-Core Interference : 0
STLB TOTAL     ACCESS: 6549172  HIT: 6454089  MISS: 95083  HIT %: 98.5482  MISS %: 1.45183  AVERAGE MISS PENALTY: 100
STLB LOAD      ACCESS: 6249315  HIT: 6172291  MISS: 77024  HIT %: 98.7675  MISS %: 1.23252  AVERAGE MISS PENALTY: 100
STLB RFO       ACCESS: 299857  HIT: 281798  MISS: 18059  HIT %: 93.9775  MISS %: 6.02254  AVERAGE MISS PENALTY: 100
STLB PREFETCH  ACCESS:     0  HIT:     0  MISS:     0  HIT %:     0  MISS %:     0  AVERAGE MISS PENALTY: 0
STLB WRITEBACK ACCESS:     0  HIT:     0  MISS:     0  HIT %:     0  MISS %:     0  AVERAGE MISS PENALTY: 0
STLB PREFETCH  REQUESTED:     0  ISSUED:     0  USEFUL:     0  USELESS:     0
 USEFUL LOAD PREFETCHES:          0 PREFETCH ISSUED TO LOWER LEVEL:          0  ACCURACY: -nan
 TIMELY PREFETCHES:          0 LATE PREFETCHES: 0 DROPPED PREFETCHES: 0
STLB AVERAGE MISS LATENCY: 100 cycles

STLB Set Associative Eviction Count : 0
STLB Priority 0 entries : 0
STLB Inter-Core Interference : 0
L1D TOTAL     ACCESS: 76859630  HIT: 40835240  MISS: 36024390  HIT %: 53.1296  MISS %: 46.8704  AVERAGE MISS PENALTY: 2.29533e+06
L1D LOAD      ACCESS: 46470615  HIT: 36638141  MISS: 9832474  HIT %: 78.8415  MISS %: 21.1585  AVERAGE MISS PENALTY: 8.40843e+06
L1D RFO       ACCESS: 1049325  HIT: 731145  MISS: 318180  HIT %: 69.6776  MISS %: 30.3224  AVERAGE MISS PENALTY: 167.975
L1D PREFETCH  ACCESS: 29339690  HIT: 3465954  MISS: 25873736  HIT %: 11.8132  MISS %: 88.1868  AVERAGE MISS PENALTY: 464.773
L1D WRITEBACK ACCESS:     0  HIT:     0  MISS:     0  HIT %:     0  MISS %:     0  AVERAGE MISS PENALTY: 0
L1D PREFETCH  REQUESTED: 40901461  ISSUED: 30119446  USEFUL: 1229565  USELESS: 24644184
 USEFUL LOAD PREFETCHES:    1229565 PREFETCH ISSUED TO LOWER LEVEL:  530068727  ACCURACY: 0.231963
 TIMELY PREFETCHES:    1229565 LATE PREFETCHES: 242257 DROPPED PREFETCHES: 10782015
L1D AVERAGE MISS LATENCY: 435.506 cycles

L1D Set Associative Eviction Count : 0
L1D Priority 0 entries : 0
L1D Inter-Core Interference : 0
L1I TOTAL     ACCESS: 44296340  HIT: 44296340  MISS:     0  HIT %:   100  MISS %:     0  AVERAGE MISS PENALTY: 0
L1I LOAD      ACCESS: 44296340  HIT: 44296340  MISS:     0  HIT %:   100  MISS %:     0  AVERAGE MISS PENALTY: 0
L1I RFO       ACCESS:     0  HIT:     0  MISS:     0  HIT %:     0  MISS %:     0  AVERAGE MISS PENALTY: 0
L1I PREFETCH  ACCESS:     0  HIT:     0  MISS:     0  HIT %:     0  MISS %:     0  AVERAGE MISS PENALTY: 0
L1I WRITEBACK ACCESS:     0  HIT:     0  MISS:     0  HIT %:     0  MISS %:     0  AVERAGE MISS PENALTY: 0
L1I PREFETCH  REQUESTED:     0  ISSUED:     0  USEFUL:     0  USELESS:     0
 USEFUL LOAD PREFETCHES:          0 PREFETCH ISSUED TO LOWER LEVEL:          0  ACCURACY: -nan
 TIMELY PREFETCHES:          0 LATE PREFETCHES: 0 DROPPED PREFETCHES: 0
L1I AVERAGE MISS LATENCY: -nan cycles

L1I Set Associative Eviction Count : 0
L1I Priority 0 entries : 0
L1I Inter-Core Interference : 0
L2C TOTAL     ACCESS: 58428628  HIT: 4925418  MISS: 53503210  HIT %: 8.4298  MISS %: 91.5702  AVERAGE MISS PENALTY: 1.90319e+06
L2C LOAD      ACCESS: 9827722  HIT: 321116  MISS: 9506606  HIT %: 3.26745  MISS %: 96.7325  AVERAGE MISS PENALTY: 1.0709e+07
L2C RFO       ACCESS: 318167  HIT: 225178  MISS: 92989  HIT %: 70.7735  MISS %: 29.2265  AVERAGE MISS PENALTY: 522.98
L2C PREFETCH  ACCESS: 47399017  HIT: 3726665  MISS: 43672352  HIT %: 7.86233  MISS %: 92.1377  AVERAGE MISS PENALTY: 480.575
L2C WRITEBACK ACCESS: 883722  HIT: 652459  MISS: 231263  HIT %: 73.8308  MISS %: 26.1692  AVERAGE MISS PENALTY: 0
L2C PREFETCH  REQUESTED: 58999455  ISSUED: 58369394  USEFUL: 46180  USELESS: 43626081
 USEFUL LOAD PREFETCHES:      46180 PREFETCH ISSUED TO LOWER LEVEL:   60391135  ACCURACY: 0.0764682
 TIMELY PREFETCHES:      46180 LATE PREFETCHES: 482943 DROPPED PREFETCHES: 630061
L2C AVERAGE MISS LATENCY: 464.808 cycles

L2C Set Associative Eviction Count : 0
L2C Priority 0 entries : 0
L2C Inter-Core Interference : 0
LLC0 TOTAL     ACCESS: 6843228  HIT: 3083392  MISS: 3759836  HIT %: 45.0576  MISS %: 54.9424  AVERAGE MISS PENALTY: 830.332
LLC0 LOAD      ACCESS: 1213527  HIT: 593847  MISS: 619680  HIT %: 48.9356  MISS %: 51.0644  AVERAGE MISS PENALTY: 831.888
LLC0 RFO       ACCESS: 11744  HIT:  3963  MISS:  7781  HIT %: 33.7449  MISS %: 66.2551  AVERAGE MISS PENALTY: 790.57
LLC0 PREFETCH  ACCESS: 5565528  HIT: 2460956  MISS: 3104572  HIT %: 44.2178  MISS %: 55.7822  AVERAGE MISS PENALTY: 837.557
LLC0 WRITEBACK ACCESS: 52429  HIT: 24626  MISS: 27803  HIT %: 46.9702  MISS %: 53.0298  AVERAGE MISS PENALTY: 0
LLC0 PREFETCH  REQUESTED:     0  ISSUED:     0  USEFUL: 1407041  USELESS: 5453944
 USEFUL LOAD PREFETCHES:    1407041 PREFETCH ISSUED TO LOWER LEVEL:  463425427  ACCURACY: 0.303618
 TIMELY PREFETCHES:    1407041 LATE PREFETCHES: 0 DROPPED PREFETCHES: 0
LLC0 AVERAGE MISS LATENCY: 830.332 cycles

LLC0 Set Associative Eviction Count : 0
LLC0 Priority 0 entries : 12288
LLC0 Inter-Core Interference : 7476435
LLC1 TOTAL     ACCESS: 6883747  HIT: 3095144  MISS: 3788603  HIT %: 44.9631  MISS %: 55.0369  AVERAGE MISS PENALTY: 819.089
LLC1 LOAD      ACCESS: 1147742  HIT: 562065  MISS: 585677  HIT %: 48.9714  MISS %: 51.0286  AVERAGE MISS PENALTY: 821.046
LLC1 RFO       ACCESS: 11673  HIT:  3925  MISS:  7748  HIT %: 33.6246  MISS %: 66.3754  AVERAGE MISS PENALTY: 780.27
LLC1 PREFETCH  ACCESS: 5672375  HIT: 2504815  MISS: 3167560  HIT %: 44.1581  MISS %: 55.8419  AVERAGE MISS PENALTY: 825.964
LLC1 WRITEBACK ACCESS: 51957  HIT: 24339  MISS: 27618  HIT %: 46.8445  MISS %: 53.1555  AVERAGE MISS PENALTY: 0
LLC1 PREFETCH  REQUESTED:     0  ISSUED:     0  USEFUL: 1415812  USELESS: 5534814
 USEFUL LOAD PREFETCHES:    1415812 PREFETCH ISSUED TO LOWER LEVEL:  384319041  ACCURACY: 0.368395
 TIMELY PREFETCHES:    1415812 LATE PREFETCHES: 0 DROPPED PREFETCHES: 0
LLC1 AVERAGE MISS LATENCY: 819.089 cycles

LLC1 Set Associative Eviction Count : 0
LLC1 Priority 0 entries : 12288
LLC1 Inter-Core Interference : 7514266
LLC2 TOTAL     ACCESS: 6885488  HIT: 3102967  MISS: 3782521  HIT %: 45.0653  MISS %: 54.9347  AVERAGE MISS PENALTY: 823.006
LLC2 LOAD      ACCESS: 1186429  HIT: 590461  MISS: 595968  HIT %: 49.7679  MISS %: 50.2321  AVERAGE MISS PENALTY: 830.813
LLC2 RFO       ACCESS: 11594  HIT:  3906  MISS:  7688  HIT %: 33.6898  MISS %: 66.3102  AVERAGE MISS PENALTY: 795.929
LLC2 PREFETCH  ACCESS: 5635554  HIT: 2484212  MISS: 3151342  HIT %: 44.0811  MISS %: 55.9189  AVERAGE MISS PENALTY: 828.784
LLC2 WRITEBACK ACCESS: 51911  HIT: 24388  MISS: 27523  HIT %: 46.9804  MISS %: 53.0196  AVERAGE MISS PENALTY: 0
LLC2 PREFETCH  REQUESTED:     0  ISSUED:     0  USEFUL: 1420703  USELESS: 5481584
 USEFUL LOAD PREFETCHES:    1420703 PREFETCH ISSUED TO LOWER LEVEL:  751242905  ACCURACY: 0.189114
 TIMELY PREFETCHES:    1420703 LATE PREFETCHES: 0 DROPPED PREFETCHES: 0
LLC2 AVERAGE MISS LATENCY: 823.006 cycles

LLC2 Set Associative Eviction Count : 0
LLC2 Priority 0 entries : 12288
LLC2 Inter-Core Interference : 7494819
LLC3 TOTAL     ACCESS: 6795450  HIT: 3071587  MISS: 3723863  HIT %: 45.2006  MISS %: 54.7994  AVERAGE MISS PENALTY: 812.063
LLC3 LOAD      ACCESS: 1175806  HIT: 574243  MISS: 601563  HIT %: 48.8382  MISS %: 51.1618  AVERAGE MISS PENALTY: 817.904
LLC3 RFO       ACCESS: 11504  HIT:  3878  MISS:  7626  HIT %: 33.71  MISS %: 66.29  AVERAGE MISS PENALTY: 789.5
LLC3 PREFETCH  ACCESS: 5556241  HIT: 2469077  MISS: 3087164  HIT %: 44.4379  MISS %: 55.5621  AVERAGE MISS PENALTY: 818.217
LLC3 WRITEBACK ACCESS: 51899  HIT: 24389  MISS: 27510  HIT %: 46.9932  MISS %: 53.0068  AVERAGE MISS PENALTY: 0
LLC3 PREFETCH  REQUESTED:     0  ISSUED:     0  USEFUL: 1415567  USELESS: 5374398
 USEFUL LOAD PREFETCHES:    1415567 PREFETCH ISSUED TO LOWER LEVEL:  599020156  ACCURACY: 0.236314
 TIMELY PREFETCHES:    1415567 LATE PREFETCHES: 0 DROPPED PREFETCHES: 0
LLC3 AVERAGE MISS LATENCY: 812.063 cycles

LLC3 Set Associative Eviction Count : 0
LLC3 Priority 0 entries : 12288
LLC3 Inter-Core Interference : 7398936
LLC4 TOTAL     ACCESS: 6714714  HIT: 3047450  MISS: 3667264  HIT %: 45.3847  MISS %: 54.6153  AVERAGE MISS PENALTY: 719.607
LLC4 LOAD      ACCESS: 1146543  HIT: 558590  MISS: 587953  HIT %: 48.7195  MISS %: 51.2805  AVERAGE MISS PENALTY: 717.095
LLC4 RFO       ACCESS: 11609  HIT:  4014  MISS:  7595  HIT %: 34.5766  MISS %: 65.4234  AVERAGE MISS PENALTY: 667.812
LLC4 PREFETCH  ACCESS: 5504505  HIT: 2460235  MISS: 3044270  HIT %: 44.6949  MISS %: 55.3051  AVERAGE MISS PENALTY: 726.708
LLC4 WRITEBACK ACCESS: 52057  HIT: 24611  MISS: 27446  HIT %: 47.277  MISS %: 52.723  AVERAGE MISS PENALTY: 0
LLC4 PREFETCH  REQUESTED:     0  ISSUED:     0  USEFUL: 1394068  USELESS: 5336158
 USEFUL LOAD PREFETCHES:    1394068 PREFETCH ISSUED TO LOWER LEVEL: 1145019714  ACCURACY: 0.121751
 TIMELY PREFETCHES:    1394068 LATE PREFETCHES: 0 DROPPED PREFETCHES: 0
LLC4 AVERAGE MISS LATENCY: 719.606 cycles

LLC4 Set Associative Eviction Count : 0
LLC4 Priority 0 entries : 12288
LLC4 Inter-Core Interference : 7318002
LLC5 TOTAL     ACCESS: 6660851  HIT: 3048133  MISS: 3612718  HIT %: 45.7619  MISS %: 54.2381  AVERAGE MISS PENALTY: 689.04
LLC5 LOAD      ACCESS: 1218376  HIT: 614242  MISS: 604134  HIT %: 50.4148  MISS %: 49.5852  AVERAGE MISS PENALTY: 683.675
LLC5 RFO       ACCESS: 11589  HIT:  3982  MISS:  7607  HIT %: 34.3602  MISS %: 65.6398  AVERAGE MISS PENALTY: 648.538
LLC5 PREFETCH  ACCESS: 5379068  HIT: 2405495  MISS: 2973573  HIT %: 44.7195  MISS %: 55.2805  AVERAGE MISS PENALTY: 696.584
LLC5 WRITEBACK ACCESS: 51818  HIT: 24414  MISS: 27404  HIT %: 47.1149  MISS %: 52.8851  AVERAGE MISS PENALTY: 0
LLC5 PREFETCH  REQUESTED:     0  ISSUED:     0  USEFUL: 1398467  USELESS: 5200763
 USEFUL LOAD PREFETCHES:    1398467 PREFETCH ISSUED TO LOWER LEVEL:  899891389  ACCURACY: 0.155404
 TIMELY PREFETCHES:    1398467 LATE PREFETCHES: 0 DROPPED PREFETCHES: 0
LLC5 AVERAGE MISS LATENCY: 689.04 cycles

LLC5 Set Associative Eviction Count : 0
LLC5 Priority 0 entries : 12288
LLC5 Inter-Core Interference : 7260691
LLC6 TOTAL     ACCESS: 6499849  HIT: 2990215  MISS: 3509634  HIT %: 46.0044  MISS %: 53.9956  AVERAGE MISS PENALTY: 705.532
LLC6 LOAD      ACCESS: 1167296  HIT: 576231  MISS: 591065  HIT %: 49.3646  MISS %: 50.6354  AVERAGE MISS PENALTY: 707.312
LLC6 RFO       ACCESS: 11530  HIT:  3963  MISS:  7567  HIT %: 34.3712  MISS %: 65.6288  AVERAGE MISS PENALTY: 692.771
LLC6 PREFETCH  ACCESS: 5269269  HIT: 2385673  MISS: 2883596  HIT %: 45.2752  MISS %: 54.7248  AVERAGE MISS PENALTY: 711.906
LLC6 WRITEBACK ACCESS: 51754  HIT: 24348  MISS: 27406  HIT %: 47.0456  MISS %: 52.9544  AVERAGE MISS PENALTY: 0
LLC6 PREFETCH  REQUESTED:     0  ISSUED:     0  USEFUL: 1391792  USELESS: 5094760
 USEFUL LOAD PREFETCHES:    1391792 PREFETCH ISSUED TO LOWER LEVEL: 1650049435  ACCURACY: 0.0843485
 TIMELY PREFETCHES:    1391792 LATE PREFETCHES: 0 DROPPED PREFETCHES: 0
LLC6 AVERAGE MISS LATENCY: 705.532 cycles

LLC6 Set Associative Eviction Count : 0
LLC6 Priority 0 entries : 12288
LLC6 Inter-Core Interference : 7132579
LLC7 TOTAL     ACCESS: 6404381  HIT: 2990846  MISS: 3413535  HIT %:  46.7  MISS %:  53.3  AVERAGE MISS PENALTY: 680.582
LLC7 LOAD      ACCESS: 1183134  HIT: 592948  MISS: 590186  HIT %: 50.1167  MISS %: 49.8833  AVERAGE MISS PENALTY: 667.799
LLC7 RFO       ACCESS: 11746  HIT:  4032  MISS:  7714  HIT %: 34.3266  MISS %: 65.6734  AVERAGE MISS PENALTY: 658.956
LLC7 PREFETCH  ACCESS: 5157559  HIT: 2369671  MISS: 2787888  HIT %: 45.9456  MISS %: 54.0544  AVERAGE MISS PENALTY: 690.122
LLC7 WRITEBACK ACCESS: 51942  HIT: 24195  MISS: 27747  HIT %: 46.5808  MISS %: 53.4192  AVERAGE MISS PENALTY: 0
LLC7 PREFETCH  REQUESTED:     0  ISSUED:     0  USEFUL: 1368299  USELESS: 5074507
 USEFUL LOAD PREFETCHES:    1368299 PREFETCH ISSUED TO LOWER LEVEL: 1286022510  ACCURACY: 0.106398
 TIMELY PREFETCHES:    1368299 LATE PREFETCHES: 0 DROPPED PREFETCHES: 0
LLC7 AVERAGE MISS LATENCY: 680.582 cycles

LLC7 Set Associative Eviction Count : 0
LLC7 Priority 0 entries : 12288
LLC7 Inter-Core Interference : 7093737
ROI Average ROB Stall Cycles:	56.7982
ROI Total ROB Stalls Cycles:	1800696554
ROI TOTAL ROB counter      :	31703406
ROI Average Load ROB Stall Cycles:	386.755
ROI Total Load ROB Stalls Cycle  :	1712984025
ROI Total Load ROB stalls Counter:	4429115
Major fault: 0 Minor fault: 58392








Interconnect Stats 
LINK 0 BW : 0LINK 1 BW : 0LINK 2 BW : 0LINK 3 BW : 0LINK 4 BW : 0LINK 5 BW : 0LINK 6 BW : 0LINK 7 BW : 0
DRAM Statistics
 CHANNEL 0
 RQ ROW_BUFFER_HIT: 45649303  ROW_BUFFER_MISS: 71428734
 DBUS_CONGESTED: 62359322
 WQ ROW_BUFFER_HIT: 94993  ROW_BUFFER_MISS: 1452288  FULL:     0

 CHANNEL 1
 RQ ROW_BUFFER_HIT: 44713092  ROW_BUFFER_MISS: 70984366
 DBUS_CONGESTED: 62359322
 WQ ROW_BUFFER_HIT: 95141  ROW_BUFFER_MISS: 1447140  FULL:     0

 AVG_CONGESTED_CYCLE: 5
DRAM PAGES: 2097152
Allocated PAGES: 467054
L2C destructor called
L1D destructor called
L1I destructor called
STLB destructor called
DTLB destructor called
ITLB destructor called
L2C destructor called
L1D destructor called
L1I destructor called
STLB destructor called
DTLB destructor called
ITLB destructor called
L2C destructor called
L1D destructor called
L1I destructor called
STLB destructor called
DTLB destructor called
ITLB destructor called
L2C destructor called
L1D destructor called
L1I destructor called
STLB destructor called
DTLB destructor called
ITLB destructor called
L2C destructor called
L1D destructor called
L1I destructor called
STLB destructor called
DTLB destructor called
ITLB destructor called
L2C destructor called
L1D destructor called
L1I destructor called
STLB destructor called
DTLB destructor called
ITLB destructor called
L2C destructor called
L1D destructor called
L1I destructor called
STLB destructor called
DTLB destructor called
ITLB destructor called
L2C destructor called
L1D destructor called
L1I destructor called
STLB destructor called
DTLB destructor called
ITLB destructor called
