
*** ChampSim Multicore Out-of-Order Simulator ***

Warmup Instructions: 200000000
Simulation Instructions: 200000000
Number of CPUs: 8
threads:1

L1I Configuration:
L1I_SET:64
L1I_WAY:8
L1I_RQ_SIZE:64
L1I_WQ_SIZE:64
L1I_PQ_SIZE:8
L1I_MSHR_SIZE:8

L1D Configuration:
L1D_SET:64
L1D_WAY:12
L1D_RQ_SIZE:64
L1D_WQ_SIZE:64
L1D_PQ_SIZE:8
L1D_MSHR_SIZE:16

L2C Configuration:
L2C_SET:1024
L2C_WAY:8
L2C_RQ_SIZE:32
L2C_WQ_SIZE:32
L2C_PQ_SIZE:16
L2C_MSHR_SIZE:32

LLC Configuration:
LLC_SET:2048
LLC_WAY:16
LLC SLICES:8
LLC_RQ_SIZE:64
LLC_WQ_SIZE:64
LLC_PQ_SIZE:32
LLC_MSHR_SIZE:64

Interconnect OFF
Attacker deprioritize is: OFF
Off-chip DRAM Size: 8192 MB Channels: 2 Width: 64-bit Data Rate: 3200 MT/s
PAGE SIZE in KB: 4.000000 
PAGE SIZE in MB: 0.003906 
PAGE offset in bits: 12 
CEASER-S_LLC:0
MIRAGE : 0
CEASER_LATENCY:3
REMAP : OFF
Partitions : 1
Multi-Step : OFF
BFS : OFF

CPU 0 runs /home/anubhav/spec_2017/602.gcc_s-734B.champsimtrace.xz
CPU 1 runs /home/anubhav/spec_2017/602.gcc_s-734B.champsimtrace.xz
CPU 2 runs /home/anubhav/spec_2017/602.gcc_s-734B.champsimtrace.xz
CPU 3 runs /home/anubhav/spec_2017/602.gcc_s-734B.champsimtrace.xz
CPU 4 runs /home/anubhav/spec_2017/602.gcc_s-734B.champsimtrace.xz
CPU 5 runs /home/anubhav/spec_2017/602.gcc_s-734B.champsimtrace.xz
CPU 6 runs /home/anubhav/spec_2017/602.gcc_s-734B.champsimtrace.xz
CPU 7 runs /home/anubhav/spec_2017/602.gcc_s-734B.champsimtrace.xz
CPU 0 Bimodal branch predictor
Initialize Hawkeye state
Initialize Hawkeye state
Initialize Hawkeye state
Initialize Hawkeye state
Initialize Hawkeye state
Initialize Hawkeye state
Initialize Hawkeye state
Initialize Hawkeye state
CPU 1 Bimodal branch predictor
Initialize Hawkeye state
Initialize Hawkeye state
Initialize Hawkeye state
Initialize Hawkeye state
Initialize Hawkeye state
Initialize Hawkeye state
Initialize Hawkeye state
Initialize Hawkeye state
CPU 2 Bimodal branch predictor
Initialize Hawkeye state
Initialize Hawkeye state
Initialize Hawkeye state
Initialize Hawkeye state
Initialize Hawkeye state
Initialize Hawkeye state
Initialize Hawkeye state
Initialize Hawkeye state
CPU 3 Bimodal branch predictor
Initialize Hawkeye state
Initialize Hawkeye state
Initialize Hawkeye state
Initialize Hawkeye state
Initialize Hawkeye state
Initialize Hawkeye state
Initialize Hawkeye state
Initialize Hawkeye state
CPU 4 Bimodal branch predictor
Initialize Hawkeye state
Initialize Hawkeye state
Initialize Hawkeye state
Initialize Hawkeye state
Initialize Hawkeye state
Initialize Hawkeye state
Initialize Hawkeye state
Initialize Hawkeye state
CPU 5 Bimodal branch predictor
Initialize Hawkeye state
Initialize Hawkeye state
Initialize Hawkeye state
Initialize Hawkeye state
Initialize Hawkeye state
Initialize Hawkeye state
Initialize Hawkeye state
Initialize Hawkeye state
CPU 6 Bimodal branch predictor
Initialize Hawkeye state
Initialize Hawkeye state
Initialize Hawkeye state
Initialize Hawkeye state
Initialize Hawkeye state
Initialize Hawkeye state
Initialize Hawkeye state
Initialize Hawkeye state
CPU 7 Bimodal branch predictor
Initialize Hawkeye state
Initialize Hawkeye state
Initialize Hawkeye state
Initialize Hawkeye state
Initialize Hawkeye state
Initialize Hawkeye state
Initialize Hawkeye state
Initialize Hawkeye state
Heartbeat CPU 0 instructions: 10000000 cycles: 7637208 heartbeat IPC: 1.30938 cumulative IPC: 1.30938 (Simulation time: 2 hr 18 min 35 sec) 
 Total Blocks : 262144 Invalid Blocks : 23638
Heartbeat CPU 1 instructions: 10000000 cycles: 7637225 heartbeat IPC: 1.30938 cumulative IPC: 1.30938 (Simulation time: 2 hr 18 min 41 sec) 
 Total Blocks : 262144 Invalid Blocks : 23637
Heartbeat CPU 2 instructions: 10000000 cycles: 7637242 heartbeat IPC: 1.30937 cumulative IPC: 1.30937 (Simulation time: 2 hr 18 min 41 sec) 
 Total Blocks : 262144 Invalid Blocks : 23636
Heartbeat CPU 4 instructions: 10000000 cycles: 7637303 heartbeat IPC: 1.30936 cumulative IPC: 1.30936 (Simulation time: 2 hr 18 min 41 sec) 
 Total Blocks : 262144 Invalid Blocks : 23635
Heartbeat CPU 3 instructions: 10000000 cycles: 7637310 heartbeat IPC: 1.30936 cumulative IPC: 1.30936 (Simulation time: 2 hr 18 min 41 sec) 
 Total Blocks : 262144 Invalid Blocks : 23635
Heartbeat CPU 6 instructions: 10000000 cycles: 7637447 heartbeat IPC: 1.30934 cumulative IPC: 1.30934 (Simulation time: 2 hr 18 min 41 sec) 
 Total Blocks : 262144 Invalid Blocks : 23635
Heartbeat CPU 7 instructions: 10000000 cycles: 7637480 heartbeat IPC: 1.30933 cumulative IPC: 1.30933 (Simulation time: 2 hr 18 min 42 sec) 
 Total Blocks : 262144 Invalid Blocks : 23635
Heartbeat CPU 5 instructions: 10000000 cycles: 7637486 heartbeat IPC: 1.30933 cumulative IPC: 1.30933 (Simulation time: 2 hr 18 min 42 sec) 
 Total Blocks : 262144 Invalid Blocks : 23635
Heartbeat CPU 1 instructions: 20000000 cycles: 15265895 heartbeat IPC: 1.31084 cumulative IPC: 1.31011 (Simulation time: 4 hr 36 min 13 sec) 
 Total Blocks : 262144 Invalid Blocks : 2369
Heartbeat CPU 0 instructions: 20000000 cycles: 15265898 heartbeat IPC: 1.31084 cumulative IPC: 1.31011 (Simulation time: 4 hr 36 min 32 sec) 
 Total Blocks : 262144 Invalid Blocks : 2369
Heartbeat CPU 2 instructions: 20000000 cycles: 15265968 heartbeat IPC: 1.31083 cumulative IPC: 1.3101 (Simulation time: 4 hr 36 min 32 sec) 
 Total Blocks : 262144 Invalid Blocks : 2369
Heartbeat CPU 4 instructions: 20000000 cycles: 15266031 heartbeat IPC: 1.31083 cumulative IPC: 1.3101 (Simulation time: 4 hr 36 min 32 sec) 
 Total Blocks : 262144 Invalid Blocks : 2368
Heartbeat CPU 3 instructions: 20000000 cycles: 15266040 heartbeat IPC: 1.31083 cumulative IPC: 1.3101 (Simulation time: 4 hr 36 min 32 sec) 
 Total Blocks : 262144 Invalid Blocks : 2368
Heartbeat CPU 6 instructions: 20000000 cycles: 15266110 heartbeat IPC: 1.31085 cumulative IPC: 1.31009 (Simulation time: 4 hr 36 min 32 sec) 
 Total Blocks : 262144 Invalid Blocks : 2368
Heartbeat CPU 7 instructions: 20000000 cycles: 15266197 heartbeat IPC: 1.31084 cumulative IPC: 1.31008 (Simulation time: 4 hr 36 min 33 sec) 
 Total Blocks : 262144 Invalid Blocks : 2367
Heartbeat CPU 5 instructions: 20000000 cycles: 15266201 heartbeat IPC: 1.31084 cumulative IPC: 1.31008 (Simulation time: 4 hr 36 min 33 sec) 
 Total Blocks : 262144 Invalid Blocks : 2367
Heartbeat CPU 0 instructions: 30000003 cycles: 22896523 heartbeat IPC: 1.31051 cumulative IPC: 1.31024 (Simulation time: 6 hr 43 min 5 sec) 
 Total Blocks : 262144 Invalid Blocks : 218
Heartbeat CPU 1 instructions: 30000003 cycles: 22896528 heartbeat IPC: 1.31051 cumulative IPC: 1.31024 (Simulation time: 6 hr 43 min 11 sec) 
 Total Blocks : 262144 Invalid Blocks : 218
Heartbeat CPU 2 instructions: 30000003 cycles: 22896539 heartbeat IPC: 1.31052 cumulative IPC: 1.31024 (Simulation time: 6 hr 43 min 11 sec) 
 Total Blocks : 262144 Invalid Blocks : 218
Heartbeat CPU 4 instructions: 30000003 cycles: 22896541 heartbeat IPC: 1.31053 cumulative IPC: 1.31024 (Simulation time: 6 hr 43 min 11 sec) 
 Total Blocks : 262144 Invalid Blocks : 218
Heartbeat CPU 3 instructions: 30000003 cycles: 22896565 heartbeat IPC: 1.31053 cumulative IPC: 1.31024 (Simulation time: 6 hr 43 min 11 sec) 
 Total Blocks : 262144 Invalid Blocks : 218
Heartbeat CPU 6 instructions: 30000003 cycles: 22896599 heartbeat IPC: 1.31053 cumulative IPC: 1.31024 (Simulation time: 6 hr 43 min 11 sec) 
 Total Blocks : 262144 Invalid Blocks : 218
Heartbeat CPU 5 instructions: 30000003 cycles: 22896694 heartbeat IPC: 1.31053 cumulative IPC: 1.31023 (Simulation time: 6 hr 43 min 12 sec) 
 Total Blocks : 262144 Invalid Blocks : 218
Heartbeat CPU 7 instructions: 30000003 cycles: 22896705 heartbeat IPC: 1.31053 cumulative IPC: 1.31023 (Simulation time: 6 hr 43 min 12 sec) 
 Total Blocks : 262144 Invalid Blocks : 218
Heartbeat CPU 6 instructions: 40000001 cycles: 30545393 heartbeat IPC: 1.3074 cumulative IPC: 1.30953 (Simulation time: 8 hr 34 min 37 sec) 
 Total Blocks : 262144 Invalid Blocks : 24
Heartbeat CPU 1 instructions: 40000001 cycles: 30545435 heartbeat IPC: 1.30738 cumulative IPC: 1.30952 (Simulation time: 8 hr 34 min 43 sec) 
 Total Blocks : 262144 Invalid Blocks : 24
Heartbeat CPU 4 instructions: 40000001 cycles: 30545443 heartbeat IPC: 1.30738 cumulative IPC: 1.30952 (Simulation time: 8 hr 34 min 43 sec) 
 Total Blocks : 262144 Invalid Blocks : 24
Heartbeat CPU 0 instructions: 40000001 cycles: 30545470 heartbeat IPC: 1.30737 cumulative IPC: 1.30952 (Simulation time: 8 hr 34 min 43 sec) 
 Total Blocks : 262144 Invalid Blocks : 24
Heartbeat CPU 2 instructions: 40000001 cycles: 30545475 heartbeat IPC: 1.30737 cumulative IPC: 1.30952 (Simulation time: 8 hr 34 min 43 sec) 
 Total Blocks : 262144 Invalid Blocks : 24
Heartbeat CPU 5 instructions: 40000001 cycles: 30545477 heartbeat IPC: 1.3074 cumulative IPC: 1.30952 (Simulation time: 8 hr 34 min 43 sec) 
 Total Blocks : 262144 Invalid Blocks : 24
Heartbeat CPU 3 instructions: 40000001 cycles: 30545483 heartbeat IPC: 1.30737 cumulative IPC: 1.30952 (Simulation time: 8 hr 34 min 43 sec) 
 Total Blocks : 262144 Invalid Blocks : 24
Heartbeat CPU 7 instructions: 40000001 cycles: 30545547 heartbeat IPC: 1.30739 cumulative IPC: 1.30952 (Simulation time: 8 hr 34 min 43 sec) 
 Total Blocks : 262144 Invalid Blocks : 24
Heartbeat CPU 6 instructions: 50000000 cycles: 38165935 heartbeat IPC: 1.31224 cumulative IPC: 1.31007 (Simulation time: 10 hr 17 min 23 sec) 
 Total Blocks : 262144 Invalid Blocks : 2
Heartbeat CPU 4 instructions: 50000000 cycles: 38165966 heartbeat IPC: 1.31225 cumulative IPC: 1.31007 (Simulation time: 10 hr 17 min 29 sec) 
 Total Blocks : 262144 Invalid Blocks : 2
Heartbeat CPU 5 instructions: 50000000 cycles: 38165968 heartbeat IPC: 1.31225 cumulative IPC: 1.31007 (Simulation time: 10 hr 17 min 33 sec) 
 Total Blocks : 262144 Invalid Blocks : 2
Heartbeat CPU 3 instructions: 50000000 cycles: 38166032 heartbeat IPC: 1.31224 cumulative IPC: 1.31007 (Simulation time: 10 hr 17 min 36 sec) 
 Total Blocks : 262144 Invalid Blocks : 2
Heartbeat CPU 7 instructions: 50000000 cycles: 38166072 heartbeat IPC: 1.31225 cumulative IPC: 1.31006 (Simulation time: 10 hr 17 min 37 sec) 
 Total Blocks : 262144 Invalid Blocks : 2
Heartbeat CPU 1 instructions: 50000000 cycles: 38166094 heartbeat IPC: 1.31222 cumulative IPC: 1.31006 (Simulation time: 10 hr 17 min 37 sec) 
 Total Blocks : 262144 Invalid Blocks : 2
Heartbeat CPU 2 instructions: 50000000 cycles: 38166136 heartbeat IPC: 1.31222 cumulative IPC: 1.31006 (Simulation time: 10 hr 17 min 39 sec) 
 Total Blocks : 262144 Invalid Blocks : 2
Heartbeat CPU 0 instructions: 50000000 cycles: 38166501 heartbeat IPC: 1.31216 cumulative IPC: 1.31005 (Simulation time: 10 hr 17 min 46 sec) 
 Total Blocks : 262144 Invalid Blocks : 2
Heartbeat CPU 4 instructions: 60000000 cycles: 45793406 heartbeat IPC: 1.31106 cumulative IPC: 1.31023 (Simulation time: 11 hr 54 min 56 sec) 
 Total Blocks : 262144 Invalid Blocks : 0
Heartbeat CPU 6 instructions: 60000000 cycles: 45793476 heartbeat IPC: 1.31104 cumulative IPC: 1.31023 (Simulation time: 11 hr 55 min 0 sec) 
 Total Blocks : 262144 Invalid Blocks : 0
Heartbeat CPU 3 instructions: 60000000 cycles: 45793576 heartbeat IPC: 1.31104 cumulative IPC: 1.31023 (Simulation time: 11 hr 55 min 0 sec) 
 Total Blocks : 262144 Invalid Blocks : 0
Heartbeat CPU 5 instructions: 60000000 cycles: 45793640 heartbeat IPC: 1.31102 cumulative IPC: 1.31023 (Simulation time: 11 hr 55 min 0 sec) 
 Total Blocks : 262144 Invalid Blocks : 0
Heartbeat CPU 7 instructions: 60000000 cycles: 45793662 heartbeat IPC: 1.31103 cumulative IPC: 1.31023 (Simulation time: 11 hr 55 min 0 sec) 
 Total Blocks : 262144 Invalid Blocks : 0
Heartbeat CPU 1 instructions: 60000000 cycles: 45793692 heartbeat IPC: 1.31103 cumulative IPC: 1.31022 (Simulation time: 11 hr 55 min 0 sec) 
 Total Blocks : 262144 Invalid Blocks : 0
Heartbeat CPU 2 instructions: 60000000 cycles: 45793699 heartbeat IPC: 1.31103 cumulative IPC: 1.31022 (Simulation time: 11 hr 55 min 0 sec) 
 Total Blocks : 262144 Invalid Blocks : 0
Heartbeat CPU 0 instructions: 60000000 cycles: 45794470 heartbeat IPC: 1.31096 cumulative IPC: 1.3102 (Simulation time: 11 hr 55 min 3 sec) 
 Total Blocks : 262144 Invalid Blocks : 0
Heartbeat CPU 4 instructions: 70000001 cycles: 53461312 heartbeat IPC: 1.30414 cumulative IPC: 1.30936 (Simulation time: 13 hr 28 min 39 sec) 
 Total Blocks : 262144 Invalid Blocks : 0
Heartbeat CPU 5 instructions: 70000001 cycles: 53461393 heartbeat IPC: 1.30416 cumulative IPC: 1.30936 (Simulation time: 13 hr 28 min 48 sec) 
 Total Blocks : 262144 Invalid Blocks : 0
Heartbeat CPU 3 instructions: 70000001 cycles: 53461460 heartbeat IPC: 1.30414 cumulative IPC: 1.30935 (Simulation time: 13 hr 28 min 48 sec) 
 Total Blocks : 262144 Invalid Blocks : 0
Heartbeat CPU 6 instructions: 70000001 cycles: 53461476 heartbeat IPC: 1.30412 cumulative IPC: 1.30935 (Simulation time: 13 hr 28 min 48 sec) 
 Total Blocks : 262144 Invalid Blocks : 0
Heartbeat CPU 7 instructions: 70000001 cycles: 53461630 heartbeat IPC: 1.30413 cumulative IPC: 1.30935 (Simulation time: 13 hr 28 min 48 sec) 
 Total Blocks : 262144 Invalid Blocks : 0
Heartbeat CPU 1 instructions: 70000001 cycles: 53461724 heartbeat IPC: 1.30412 cumulative IPC: 1.30935 (Simulation time: 13 hr 28 min 48 sec) 
 Total Blocks : 262144 Invalid Blocks : 0
Heartbeat CPU 2 instructions: 70000001 cycles: 53461921 heartbeat IPC: 1.30408 cumulative IPC: 1.30934 (Simulation time: 13 hr 28 min 48 sec) 
 Total Blocks : 262144 Invalid Blocks : 0
Heartbeat CPU 0 instructions: 70000001 cycles: 53462457 heartbeat IPC: 1.30412 cumulative IPC: 1.30933 (Simulation time: 13 hr 28 min 49 sec) 
 Total Blocks : 262144 Invalid Blocks : 0
Heartbeat CPU 4 instructions: 80000003 cycles: 61092943 heartbeat IPC: 1.31034 cumulative IPC: 1.30948 (Simulation time: 14 hr 50 min 56 sec) 
 Total Blocks : 262144 Invalid Blocks : 0
Heartbeat CPU 5 instructions: 80000003 cycles: 61093023 heartbeat IPC: 1.31034 cumulative IPC: 1.30948 (Simulation time: 14 hr 51 min 0 sec) 
 Total Blocks : 262144 Invalid Blocks : 0
Heartbeat CPU 3 instructions: 80000003 cycles: 61093085 heartbeat IPC: 1.31034 cumulative IPC: 1.30948 (Simulation time: 14 hr 51 min 0 sec) 
 Total Blocks : 262144 Invalid Blocks : 0
Heartbeat CPU 6 instructions: 80000003 cycles: 61093098 heartbeat IPC: 1.31034 cumulative IPC: 1.30948 (Simulation time: 14 hr 51 min 0 sec) 
 Total Blocks : 262144 Invalid Blocks : 0
Heartbeat CPU 7 instructions: 80000003 cycles: 61093260 heartbeat IPC: 1.31034 cumulative IPC: 1.30947 (Simulation time: 14 hr 51 min 0 sec) 
 Total Blocks : 262144 Invalid Blocks : 0
Heartbeat CPU 1 instructions: 80000003 cycles: 61093459 heartbeat IPC: 1.31032 cumulative IPC: 1.30947 (Simulation time: 14 hr 51 min 0 sec) 
 Total Blocks : 262144 Invalid Blocks : 0
Heartbeat CPU 2 instructions: 80000003 cycles: 61093579 heartbeat IPC: 1.31033 cumulative IPC: 1.30947 (Simulation time: 14 hr 51 min 1 sec) 
 Total Blocks : 262144 Invalid Blocks : 0
Heartbeat CPU 0 instructions: 80000003 cycles: 61094176 heartbeat IPC: 1.31032 cumulative IPC: 1.30945 (Simulation time: 14 hr 51 min 1 sec) 
 Total Blocks : 262144 Invalid Blocks : 0
Heartbeat CPU 4 instructions: 90000001 cycles: 68736775 heartbeat IPC: 1.30824 cumulative IPC: 1.30934 (Simulation time: 16 hr 9 min 57 sec) 
 Total Blocks : 262144 Invalid Blocks : 0
Heartbeat CPU 5 instructions: 90000001 cycles: 68736791 heartbeat IPC: 1.30826 cumulative IPC: 1.30934 (Simulation time: 16 hr 10 min 1 sec) 
 Total Blocks : 262144 Invalid Blocks : 0
Heartbeat CPU 6 instructions: 90000001 cycles: 68736875 heartbeat IPC: 1.30825 cumulative IPC: 1.30934 (Simulation time: 16 hr 10 min 1 sec) 
 Total Blocks : 262144 Invalid Blocks : 0
Heartbeat CPU 3 instructions: 90000001 cycles: 68736926 heartbeat IPC: 1.30824 cumulative IPC: 1.30934 (Simulation time: 16 hr 10 min 1 sec) 
 Total Blocks : 262144 Invalid Blocks : 0
Heartbeat CPU 7 instructions: 90000001 cycles: 68737064 heartbeat IPC: 1.30825 cumulative IPC: 1.30934 (Simulation time: 16 hr 10 min 1 sec) 
 Total Blocks : 262144 Invalid Blocks : 0
Heartbeat CPU 1 instructions: 90000001 cycles: 68737301 heartbeat IPC: 1.30824 cumulative IPC: 1.30933 (Simulation time: 16 hr 10 min 2 sec) 
 Total Blocks : 262144 Invalid Blocks : 0
Heartbeat CPU 2 instructions: 90000001 cycles: 68737431 heartbeat IPC: 1.30824 cumulative IPC: 1.30933 (Simulation time: 16 hr 10 min 2 sec) 
 Total Blocks : 262144 Invalid Blocks : 0
Heartbeat CPU 0 instructions: 90000001 cycles: 68738024 heartbeat IPC: 1.30824 cumulative IPC: 1.30932 (Simulation time: 16 hr 10 min 2 sec) 
 Total Blocks : 262144 Invalid Blocks : 0
Heartbeat CPU 5 instructions: 100000003 cycles: 75840514 heartbeat IPC: 1.40771 cumulative IPC: 1.31856 (Simulation time: 18 hr 39 min 33 sec) 
 Total Blocks : 262144 Invalid Blocks : 0
Heartbeat CPU 6 instructions: 100000003 cycles: 75840611 heartbeat IPC: 1.40771 cumulative IPC: 1.31855 (Simulation time: 18 hr 39 min 36 sec) 
 Total Blocks : 262144 Invalid Blocks : 0
Heartbeat CPU 4 instructions: 100000003 cycles: 75840618 heartbeat IPC: 1.40769 cumulative IPC: 1.31855 (Simulation time: 18 hr 39 min 36 sec) 
 Total Blocks : 262144 Invalid Blocks : 0
Heartbeat CPU 3 instructions: 100000003 cycles: 75840771 heartbeat IPC: 1.40769 cumulative IPC: 1.31855 (Simulation time: 18 hr 39 min 36 sec) 
 Total Blocks : 262144 Invalid Blocks : 0
Heartbeat CPU 7 instructions: 100000003 cycles: 75840890 heartbeat IPC: 1.40769 cumulative IPC: 1.31855 (Simulation time: 18 hr 39 min 36 sec) 
 Total Blocks : 262144 Invalid Blocks : 0
Heartbeat CPU 1 instructions: 100000003 cycles: 75841209 heartbeat IPC: 1.40768 cumulative IPC: 1.31854 (Simulation time: 18 hr 39 min 36 sec) 
 Total Blocks : 262144 Invalid Blocks : 0
Heartbeat CPU 2 instructions: 100000003 cycles: 75841471 heartbeat IPC: 1.40765 cumulative IPC: 1.31854 (Simulation time: 18 hr 39 min 36 sec) 
 Total Blocks : 262144 Invalid Blocks : 0
Heartbeat CPU 0 instructions: 100000003 cycles: 75841912 heartbeat IPC: 1.40768 cumulative IPC: 1.31853 (Simulation time: 18 hr 39 min 36 sec) 
 Total Blocks : 262144 Invalid Blocks : 0
Heartbeat CPU 5 instructions: 110000000 cycles: 83456321 heartbeat IPC: 1.31306 cumulative IPC: 1.31805 (Simulation time: 19 hr 46 min 18 sec) 
 Total Blocks : 262144 Invalid Blocks : 0
Heartbeat CPU 6 instructions: 110000000 cycles: 83456402 heartbeat IPC: 1.31306 cumulative IPC: 1.31805 (Simulation time: 19 hr 46 min 21 sec) 
 Total Blocks : 262144 Invalid Blocks : 0
Heartbeat CPU 4 instructions: 110000000 cycles: 83456412 heartbeat IPC: 1.31306 cumulative IPC: 1.31805 (Simulation time: 19 hr 46 min 21 sec) 
 Total Blocks : 262144 Invalid Blocks : 0
Heartbeat CPU 3 instructions: 110000000 cycles: 83456564 heartbeat IPC: 1.31306 cumulative IPC: 1.31805 (Simulation time: 19 hr 46 min 22 sec) 
 Total Blocks : 262144 Invalid Blocks : 0
Heartbeat CPU 7 instructions: 110000000 cycles: 83456690 heartbeat IPC: 1.31306 cumulative IPC: 1.31805 (Simulation time: 19 hr 46 min 22 sec) 
 Total Blocks : 262144 Invalid Blocks : 0
Heartbeat CPU 1 instructions: 110000000 cycles: 83457121 heartbeat IPC: 1.31304 cumulative IPC: 1.31804 (Simulation time: 19 hr 46 min 22 sec) 
 Total Blocks : 262144 Invalid Blocks : 0
Heartbeat CPU 2 instructions: 110000000 cycles: 83457326 heartbeat IPC: 1.31305 cumulative IPC: 1.31804 (Simulation time: 19 hr 46 min 22 sec) 
 Total Blocks : 262144 Invalid Blocks : 0
Heartbeat CPU 0 instructions: 110000000 cycles: 83457812 heartbeat IPC: 1.31304 cumulative IPC: 1.31803 (Simulation time: 19 hr 46 min 22 sec) 
 Total Blocks : 262144 Invalid Blocks : 0
Heartbeat CPU 5 instructions: 120000000 cycles: 91092734 heartbeat IPC: 1.30952 cumulative IPC: 1.31734 (Simulation time: 20 hr 55 min 48 sec) 
 Total Blocks : 262144 Invalid Blocks : 0
Heartbeat CPU 6 instructions: 120000000 cycles: 91092834 heartbeat IPC: 1.30951 cumulative IPC: 1.31734 (Simulation time: 20 hr 55 min 52 sec) 
 Total Blocks : 262144 Invalid Blocks : 0
Heartbeat CPU 4 instructions: 120000000 cycles: 91092899 heartbeat IPC: 1.3095 cumulative IPC: 1.31734 (Simulation time: 20 hr 55 min 52 sec) 
 Total Blocks : 262144 Invalid Blocks : 0
Heartbeat CPU 7 instructions: 120000000 cycles: 91093128 heartbeat IPC: 1.30951 cumulative IPC: 1.31733 (Simulation time: 20 hr 55 min 52 sec) 
 Total Blocks : 262144 Invalid Blocks : 0
Heartbeat CPU 3 instructions: 120000000 cycles: 91093145 heartbeat IPC: 1.30949 cumulative IPC: 1.31733 (Simulation time: 20 hr 55 min 52 sec) 
 Total Blocks : 262144 Invalid Blocks : 0
Heartbeat CPU 1 instructions: 120000000 cycles: 91093600 heartbeat IPC: 1.3095 cumulative IPC: 1.31733 (Simulation time: 20 hr 55 min 52 sec) 
 Total Blocks : 262144 Invalid Blocks : 0
Heartbeat CPU 2 instructions: 120000000 cycles: 91093814 heartbeat IPC: 1.3095 cumulative IPC: 1.31732 (Simulation time: 20 hr 55 min 52 sec) 
 Total Blocks : 262144 Invalid Blocks : 0
Heartbeat CPU 0 instructions: 120000000 cycles: 91094313 heartbeat IPC: 1.3095 cumulative IPC: 1.31732 (Simulation time: 20 hr 55 min 52 sec) 
 Total Blocks : 262144 Invalid Blocks : 0
Heartbeat CPU 5 instructions: 130000000 cycles: 98817409 heartbeat IPC: 1.29455 cumulative IPC: 1.31556 (Simulation time: 22 hr 16 min 56 sec) 
 Total Blocks : 262144 Invalid Blocks : 0
Heartbeat CPU 4 instructions: 130000000 cycles: 98817774 heartbeat IPC: 1.29452 cumulative IPC: 1.31555 (Simulation time: 22 hr 17 min 0 sec) 
 Total Blocks : 262144 Invalid Blocks : 0
Heartbeat CPU 3 instructions: 130000000 cycles: 98817903 heartbeat IPC: 1.29454 cumulative IPC: 1.31555 (Simulation time: 22 hr 17 min 0 sec) 
 Total Blocks : 262144 Invalid Blocks : 0
Heartbeat CPU 7 instructions: 130000000 cycles: 98817921 heartbeat IPC: 1.29453 cumulative IPC: 1.31555 (Simulation time: 22 hr 17 min 0 sec) 
 Total Blocks : 262144 Invalid Blocks : 0
Heartbeat CPU 6 instructions: 130000000 cycles: 98818154 heartbeat IPC: 1.29444 cumulative IPC: 1.31555 (Simulation time: 22 hr 17 min 0 sec) 
 Total Blocks : 262144 Invalid Blocks : 0
Heartbeat CPU 2 instructions: 130000000 cycles: 98818729 heartbeat IPC: 1.29451 cumulative IPC: 1.31554 (Simulation time: 22 hr 17 min 0 sec) 
 Total Blocks : 262144 Invalid Blocks : 0
Heartbeat CPU 0 instructions: 130000000 cycles: 98819433 heartbeat IPC: 1.29448 cumulative IPC: 1.31553 (Simulation time: 22 hr 17 min 0 sec) 
 Total Blocks : 262144 Invalid Blocks : 0
Heartbeat CPU 1 instructions: 130000000 cycles: 98822557 heartbeat IPC: 1.29384 cumulative IPC: 1.31549 (Simulation time: 22 hr 17 min 2 sec) 
 Total Blocks : 262144 Invalid Blocks : 0
Heartbeat CPU 5 instructions: 140000000 cycles: 106461186 heartbeat IPC: 1.30825 cumulative IPC: 1.31503 (Simulation time: 23 hr 32 min 16 sec) 
 Total Blocks : 262144 Invalid Blocks : 0
Heartbeat CPU 4 instructions: 140000000 cycles: 106461579 heartbeat IPC: 1.30825 cumulative IPC: 1.31503 (Simulation time: 23 hr 32 min 19 sec) 
 Total Blocks : 262144 Invalid Blocks : 0
Heartbeat CPU 7 instructions: 140000000 cycles: 106461691 heartbeat IPC: 1.30825 cumulative IPC: 1.31503 (Simulation time: 23 hr 32 min 19 sec) 
 Total Blocks : 262144 Invalid Blocks : 0
Heartbeat CPU 3 instructions: 140000000 cycles: 106461779 heartbeat IPC: 1.30824 cumulative IPC: 1.31503 (Simulation time: 23 hr 32 min 19 sec) 
 Total Blocks : 262144 Invalid Blocks : 0
Heartbeat CPU 6 instructions: 140000000 cycles: 106462245 heartbeat IPC: 1.3082 cumulative IPC: 1.31502 (Simulation time: 23 hr 32 min 19 sec) 
 Total Blocks : 262144 Invalid Blocks : 0
Heartbeat CPU 2 instructions: 140000000 cycles: 106462929 heartbeat IPC: 1.30818 cumulative IPC: 1.31501 (Simulation time: 23 hr 32 min 19 sec) 
 Total Blocks : 262144 Invalid Blocks : 0
Heartbeat CPU 0 instructions: 140000000 cycles: 106464299 heartbeat IPC: 1.30807 cumulative IPC: 1.31499 (Simulation time: 23 hr 32 min 20 sec) 
 Total Blocks : 262144 Invalid Blocks : 0
Heartbeat CPU 1 instructions: 140000000 cycles: 106467142 heartbeat IPC: 1.30812 cumulative IPC: 1.31496 (Simulation time: 23 hr 32 min 21 sec) 
 Total Blocks : 262144 Invalid Blocks : 0
Heartbeat CPU 5 instructions: 150000002 cycles: 114113646 heartbeat IPC: 1.30677 cumulative IPC: 1.31448 (Simulation time: 24 hr 45 min 20 sec) 
 Total Blocks : 262144 Invalid Blocks : 0
Heartbeat CPU 7 instructions: 150000002 cycles: 114113909 heartbeat IPC: 1.30681 cumulative IPC: 1.31448 (Simulation time: 24 hr 45 min 41 sec) 
 Total Blocks : 262144 Invalid Blocks : 0
Heartbeat CPU 4 instructions: 150000002 cycles: 114114010 heartbeat IPC: 1.30677 cumulative IPC: 1.31447 (Simulation time: 24 hr 45 min 41 sec) 
 Total Blocks : 262144 Invalid Blocks : 0
Heartbeat CPU 3 instructions: 150000002 cycles: 114114453 heartbeat IPC: 1.30673 cumulative IPC: 1.31447 (Simulation time: 24 hr 45 min 42 sec) 
 Total Blocks : 262144 Invalid Blocks : 0
Heartbeat CPU 6 instructions: 150000002 cycles: 114114621 heartbeat IPC: 1.30678 cumulative IPC: 1.31447 (Simulation time: 24 hr 45 min 42 sec) 
 Total Blocks : 262144 Invalid Blocks : 0
Heartbeat CPU 2 instructions: 150000002 cycles: 114115465 heartbeat IPC: 1.30676 cumulative IPC: 1.31446 (Simulation time: 24 hr 45 min 44 sec) 
 Total Blocks : 262144 Invalid Blocks : 0
Heartbeat CPU 0 instructions: 150000002 cycles: 114117343 heartbeat IPC: 1.30667 cumulative IPC: 1.31444 (Simulation time: 24 hr 45 min 45 sec) 
 Total Blocks : 262144 Invalid Blocks : 0
Heartbeat CPU 1 instructions: 150000002 cycles: 114119953 heartbeat IPC: 1.30671 cumulative IPC: 1.31441 (Simulation time: 24 hr 45 min 46 sec) 
 Total Blocks : 262144 Invalid Blocks : 0
Heartbeat CPU 5 instructions: 160000002 cycles: 121764607 heartbeat IPC: 1.30703 cumulative IPC: 1.31401 (Simulation time: 25 hr 53 min 3 sec) 
 Total Blocks : 262144 Invalid Blocks : 0
Heartbeat CPU 7 instructions: 160000002 cycles: 121764937 heartbeat IPC: 1.30701 cumulative IPC: 1.31401 (Simulation time: 25 hr 53 min 5 sec) 
 Total Blocks : 262144 Invalid Blocks : 0
Heartbeat CPU 4 instructions: 160000002 cycles: 121765181 heartbeat IPC: 1.30699 cumulative IPC: 1.314 (Simulation time: 25 hr 53 min 6 sec) 
 Total Blocks : 262144 Invalid Blocks : 0
Heartbeat CPU 6 instructions: 160000002 cycles: 121765734 heartbeat IPC: 1.307 cumulative IPC: 1.314 (Simulation time: 25 hr 53 min 6 sec) 
 Total Blocks : 262144 Invalid Blocks : 0
Heartbeat CPU 3 instructions: 160000002 cycles: 121766002 heartbeat IPC: 1.30692 cumulative IPC: 1.314 (Simulation time: 25 hr 53 min 6 sec) 
 Total Blocks : 262144 Invalid Blocks : 0
Heartbeat CPU 2 instructions: 160000002 cycles: 121766905 heartbeat IPC: 1.30694 cumulative IPC: 1.31399 (Simulation time: 25 hr 53 min 6 sec) 
 Total Blocks : 262144 Invalid Blocks : 0
Heartbeat CPU 0 instructions: 160000002 cycles: 121769011 heartbeat IPC: 1.3069 cumulative IPC: 1.31396 (Simulation time: 25 hr 53 min 7 sec) 
 Total Blocks : 262144 Invalid Blocks : 0
Heartbeat CPU 1 instructions: 160000002 cycles: 121771490 heartbeat IPC: 1.30693 cumulative IPC: 1.31394 (Simulation time: 25 hr 53 min 7 sec) 
 Total Blocks : 262144 Invalid Blocks : 0
Heartbeat CPU 5 instructions: 170000003 cycles: 129387579 heartbeat IPC: 1.31182 cumulative IPC: 1.31388 (Simulation time: 26 hr 51 min 1 sec) 
 Total Blocks : 262144 Invalid Blocks : 0
Heartbeat CPU 7 instructions: 170000003 cycles: 129388050 heartbeat IPC: 1.3118 cumulative IPC: 1.31388 (Simulation time: 26 hr 51 min 3 sec) 
 Total Blocks : 262144 Invalid Blocks : 0
Heartbeat CPU 4 instructions: 170000003 cycles: 129388308 heartbeat IPC: 1.3118 cumulative IPC: 1.31387 (Simulation time: 26 hr 51 min 3 sec) 
 Total Blocks : 262144 Invalid Blocks : 0
Heartbeat CPU 6 instructions: 170000003 cycles: 129388838 heartbeat IPC: 1.3118 cumulative IPC: 1.31387 (Simulation time: 26 hr 51 min 3 sec) 
 Total Blocks : 262144 Invalid Blocks : 0
Heartbeat CPU 3 instructions: 170000003 cycles: 129389123 heartbeat IPC: 1.3118 cumulative IPC: 1.31387 (Simulation time: 26 hr 51 min 4 sec) 
 Total Blocks : 262144 Invalid Blocks : 0
Heartbeat CPU 2 instructions: 170000003 cycles: 129390108 heartbeat IPC: 1.31178 cumulative IPC: 1.31386 (Simulation time: 26 hr 51 min 4 sec) 
 Total Blocks : 262144 Invalid Blocks : 0
Heartbeat CPU 0 instructions: 170000003 cycles: 129392257 heartbeat IPC: 1.31178 cumulative IPC: 1.31383 (Simulation time: 26 hr 51 min 5 sec) 
 Total Blocks : 262144 Invalid Blocks : 0
Heartbeat CPU 1 instructions: 170000003 cycles: 129394734 heartbeat IPC: 1.31178 cumulative IPC: 1.31381 (Simulation time: 26 hr 51 min 5 sec) 
 Total Blocks : 262144 Invalid Blocks : 0
Heartbeat CPU 5 instructions: 180000000 cycles: 137030858 heartbeat IPC: 1.30834 cumulative IPC: 1.31357 (Simulation time: 27 hr 48 min 33 sec) 
 Total Blocks : 262144 Invalid Blocks : 0
Heartbeat CPU 7 instructions: 180000000 cycles: 137031469 heartbeat IPC: 1.30831 cumulative IPC: 1.31357 (Simulation time: 27 hr 48 min 35 sec) 
 Total Blocks : 262144 Invalid Blocks : 0
Heartbeat CPU 4 instructions: 180000000 cycles: 137031737 heartbeat IPC: 1.30831 cumulative IPC: 1.31356 (Simulation time: 27 hr 48 min 35 sec) 
 Total Blocks : 262144 Invalid Blocks : 0
Heartbeat CPU 6 instructions: 180000000 cycles: 137032245 heartbeat IPC: 1.30832 cumulative IPC: 1.31356 (Simulation time: 27 hr 48 min 35 sec) 
 Total Blocks : 262144 Invalid Blocks : 0
Heartbeat CPU 3 instructions: 180000000 cycles: 137032567 heartbeat IPC: 1.30831 cumulative IPC: 1.31356 (Simulation time: 27 hr 48 min 35 sec) 
 Total Blocks : 262144 Invalid Blocks : 0
Heartbeat CPU 2 instructions: 180000000 cycles: 137033573 heartbeat IPC: 1.30831 cumulative IPC: 1.31355 (Simulation time: 27 hr 48 min 35 sec) 
 Total Blocks : 262144 Invalid Blocks : 0
Heartbeat CPU 0 instructions: 180000000 cycles: 137035704 heartbeat IPC: 1.30831 cumulative IPC: 1.31353 (Simulation time: 27 hr 48 min 36 sec) 
 Total Blocks : 262144 Invalid Blocks : 0
Heartbeat CPU 1 instructions: 180000000 cycles: 137038215 heartbeat IPC: 1.3083 cumulative IPC: 1.3135 (Simulation time: 27 hr 48 min 36 sec) 
 Total Blocks : 262144 Invalid Blocks : 0
Heartbeat CPU 5 instructions: 190000000 cycles: 146585765 heartbeat IPC: 1.04658 cumulative IPC: 1.29617 (Simulation time: 29 hr 2 min 14 sec) 
 Total Blocks : 262144 Invalid Blocks : 0
Heartbeat CPU 7 instructions: 190000000 cycles: 146586552 heartbeat IPC: 1.04656 cumulative IPC: 1.29616 (Simulation time: 29 hr 2 min 16 sec) 
 Total Blocks : 262144 Invalid Blocks : 0
Heartbeat CPU 4 instructions: 190000000 cycles: 146586772 heartbeat IPC: 1.04657 cumulative IPC: 1.29616 (Simulation time: 29 hr 2 min 16 sec) 
 Total Blocks : 262144 Invalid Blocks : 0
Heartbeat CPU 6 instructions: 190000000 cycles: 146587396 heartbeat IPC: 1.04656 cumulative IPC: 1.29616 (Simulation time: 29 hr 2 min 16 sec) 
 Total Blocks : 262144 Invalid Blocks : 0
Heartbeat CPU 3 instructions: 190000000 cycles: 146587590 heartbeat IPC: 1.04657 cumulative IPC: 1.29615 (Simulation time: 29 hr 2 min 16 sec) 
 Total Blocks : 262144 Invalid Blocks : 0
Heartbeat CPU 2 instructions: 190000000 cycles: 146589025 heartbeat IPC: 1.04652 cumulative IPC: 1.29614 (Simulation time: 29 hr 2 min 17 sec) 
 Total Blocks : 262144 Invalid Blocks : 0
Heartbeat CPU 0 instructions: 190000000 cycles: 146591690 heartbeat IPC: 1.04646 cumulative IPC: 1.29612 (Simulation time: 29 hr 2 min 17 sec) 
 Total Blocks : 262144 Invalid Blocks : 0
Heartbeat CPU 1 instructions: 190000000 cycles: 146593857 heartbeat IPC: 1.0465 cumulative IPC: 1.2961 (Simulation time: 29 hr 2 min 18 sec) 
 Total Blocks : 262144 Invalid Blocks : 0
Heartbeat CPU 5 instructions: 200000000 cycles: 154841508 heartbeat IPC: 1.21128 cumulative IPC: 1.29164 (Simulation time: 30 hr 6 min 48 sec) 
 Total Blocks : 262144 Invalid Blocks : 0
Heartbeat CPU 7 instructions: 200000000 cycles: 154842364 heartbeat IPC: 1.21127 cumulative IPC: 1.29164 (Simulation time: 30 hr 6 min 50 sec) 
 Total Blocks : 262144 Invalid Blocks : 0
Heartbeat CPU 4 instructions: 200000000 cycles: 154842567 heartbeat IPC: 1.21127 cumulative IPC: 1.29163 (Simulation time: 30 hr 6 min 51 sec) 
 Total Blocks : 262144 Invalid Blocks : 0
Heartbeat CPU 6 instructions: 200000000 cycles: 154842888 heartbeat IPC: 1.21131 cumulative IPC: 1.29163 (Simulation time: 30 hr 6 min 51 sec) 
 Total Blocks : 262144 Invalid Blocks : 0
Heartbeat CPU 3 instructions: 200000000 cycles: 154843436 heartbeat IPC: 1.21126 cumulative IPC: 1.29163 (Simulation time: 30 hr 6 min 51 sec) 
 Total Blocks : 262144 Invalid Blocks : 0
Heartbeat CPU 2 instructions: 200000000 cycles: 154845075 heartbeat IPC: 1.21123 cumulative IPC: 1.29161 (Simulation time: 30 hr 6 min 52 sec) 
 Total Blocks : 262144 Invalid Blocks : 0
Heartbeat CPU 0 instructions: 200000000 cycles: 154847765 heartbeat IPC: 1.21123 cumulative IPC: 1.29159 (Simulation time: 30 hr 6 min 53 sec) 
 Total Blocks : 262144 Invalid Blocks : 0
Heartbeat CPU 1 instructions: 200000000 cycles: 154849867 heartbeat IPC: 1.21124 cumulative IPC: 1.29157 (Simulation time: 30 hr 6 min 54 sec) 
 Total Blocks : 262144 Invalid Blocks : 0

Warmup complete CPU 0 instructions: 200002779 cycles: 154849868 (Simulation time: 30 hr 6 min 54 sec) 
Warmup complete CPU 1 instructions: 200000004 cycles: 154849868 (Simulation time: 30 hr 6 min 54 sec) 
Warmup complete CPU 2 instructions: 200006087 cycles: 154849867 (Simulation time: 30 hr 6 min 54 sec) 
Warmup complete CPU 3 instructions: 200008246 cycles: 154849867 (Simulation time: 30 hr 6 min 54 sec) 
Warmup complete CPU 4 instructions: 200009393 cycles: 154849867 (Simulation time: 30 hr 6 min 54 sec) 
Warmup complete CPU 5 instructions: 200010780 cycles: 154849867 (Simulation time: 30 hr 6 min 54 sec) 
Warmup complete CPU 6 instructions: 200008966 cycles: 154849867 (Simulation time: 30 hr 6 min 54 sec) 
Warmup complete CPU 7 instructions: 200009652 cycles: 154849867 (Simulation time: 30 hr 6 min 54 sec) 

Heartbeat CPU 5 instructions: 210000003 cycles: 179824113 heartbeat IPC: 0.400279 cumulative IPC: 0.399981 (Simulation time: 31 hr 24 min 16 sec) 
 Total Blocks : 262144 Invalid Blocks : 0
Heartbeat CPU 6 instructions: 210000003 cycles: 179824217 heartbeat IPC: 0.400299 cumulative IPC: 0.400052 (Simulation time: 31 hr 24 min 26 sec) 
 Total Blocks : 262144 Invalid Blocks : 0
Heartbeat CPU 3 instructions: 210000003 cycles: 179824319 heartbeat IPC: 0.400306 cumulative IPC: 0.400079 (Simulation time: 31 hr 24 min 26 sec) 
 Total Blocks : 262144 Invalid Blocks : 0
Heartbeat CPU 7 instructions: 210000003 cycles: 179824421 heartbeat IPC: 0.400287 cumulative IPC: 0.400021 (Simulation time: 31 hr 24 min 26 sec) 
 Total Blocks : 262144 Invalid Blocks : 0
Heartbeat CPU 4 instructions: 210000003 cycles: 179825421 heartbeat IPC: 0.400275 cumulative IPC: 0.400016 (Simulation time: 31 hr 24 min 27 sec) 
 Total Blocks : 262144 Invalid Blocks : 0
Heartbeat CPU 2 instructions: 210000003 cycles: 179830992 heartbeat IPC: 0.400226 cumulative IPC: 0.400059 (Simulation time: 31 hr 24 min 28 sec) 
 Total Blocks : 262144 Invalid Blocks : 0
Heartbeat CPU 0 instructions: 210000003 cycles: 179831094 heartbeat IPC: 0.400267 cumulative IPC: 0.400189 (Simulation time: 31 hr 24 min 28 sec) 
 Total Blocks : 262144 Invalid Blocks : 0
Heartbeat CPU 1 instructions: 210000003 cycles: 179867767 heartbeat IPC: 0.399714 cumulative IPC: 0.399714 (Simulation time: 31 hr 24 min 32 sec) 
 Total Blocks : 262144 Invalid Blocks : 0
Heartbeat CPU 5 instructions: 220000000 cycles: 205205736 heartbeat IPC: 0.393986 cumulative IPC: 0.396959 (Simulation time: 32 hr 41 min 30 sec) 
 Total Blocks : 262144 Invalid Blocks : 0
Heartbeat CPU 6 instructions: 220000000 cycles: 205209706 heartbeat IPC: 0.393926 cumulative IPC: 0.396964 (Simulation time: 32 hr 41 min 33 sec) 
 Total Blocks : 262144 Invalid Blocks : 0
Heartbeat CPU 2 instructions: 220000000 cycles: 205209859 heartbeat IPC: 0.394029 cumulative IPC: 0.39702 (Simulation time: 32 hr 41 min 33 sec) 
 Total Blocks : 262144 Invalid Blocks : 0
Heartbeat CPU 7 instructions: 220000000 cycles: 205210161 heartbeat IPC: 0.393922 cumulative IPC: 0.396947 (Simulation time: 32 hr 41 min 33 sec) 
 Total Blocks : 262144 Invalid Blocks : 0
Heartbeat CPU 3 instructions: 220000000 cycles: 205221926 heartbeat IPC: 0.393738 cumulative IPC: 0.396882 (Simulation time: 32 hr 41 min 35 sec) 
 Total Blocks : 262144 Invalid Blocks : 0
Heartbeat CPU 4 instructions: 220000000 cycles: 205229116 heartbeat IPC: 0.393643 cumulative IPC: 0.396802 (Simulation time: 32 hr 41 min 36 sec) 
 Total Blocks : 262144 Invalid Blocks : 0
Heartbeat CPU 0 instructions: 220000000 cycles: 205229218 heartbeat IPC: 0.39373 cumulative IPC: 0.396933 (Simulation time: 32 hr 41 min 36 sec) 
 Total Blocks : 262144 Invalid Blocks : 0
Heartbeat CPU 1 instructions: 220000000 cycles: 205254656 heartbeat IPC: 0.393904 cumulative IPC: 0.396788 (Simulation time: 32 hr 41 min 39 sec) 
 Total Blocks : 262144 Invalid Blocks : 0
Heartbeat CPU 5 instructions: 230000001 cycles: 230211490 heartbeat IPC: 0.399908 cumulative IPC: 0.397938 (Simulation time: 33 hr 52 min 26 sec) 
 Total Blocks : 262144 Invalid Blocks : 0
Heartbeat CPU 2 instructions: 230000001 cycles: 230211697 heartbeat IPC: 0.399971 cumulative IPC: 0.397999 (Simulation time: 33 hr 52 min 28 sec) 
 Total Blocks : 262144 Invalid Blocks : 0
Heartbeat CPU 7 instructions: 230000001 cycles: 230211899 heartbeat IPC: 0.399972 cumulative IPC: 0.39795 (Simulation time: 33 hr 52 min 28 sec) 
 Total Blocks : 262144 Invalid Blocks : 0
Heartbeat CPU 6 instructions: 230000001 cycles: 230212688 heartbeat IPC: 0.399952 cumulative IPC: 0.397955 (Simulation time: 33 hr 52 min 28 sec) 
 Total Blocks : 262144 Invalid Blocks : 0
Heartbeat CPU 4 instructions: 230000001 cycles: 230213841 heartbeat IPC: 0.400245 cumulative IPC: 0.397944 (Simulation time: 33 hr 52 min 28 sec) 
 Total Blocks : 262144 Invalid Blocks : 0
Heartbeat CPU 0 instructions: 230000001 cycles: 230213943 heartbeat IPC: 0.400245 cumulative IPC: 0.398031 (Simulation time: 33 hr 52 min 28 sec) 
 Total Blocks : 262144 Invalid Blocks : 0
Heartbeat CPU 3 instructions: 230000001 cycles: 230246105 heartbeat IPC: 0.399614 cumulative IPC: 0.397788 (Simulation time: 33 hr 52 min 34 sec) 
 Total Blocks : 262144 Invalid Blocks : 0
Heartbeat CPU 1 instructions: 230000001 cycles: 230253934 heartbeat IPC: 0.400012 cumulative IPC: 0.397857 (Simulation time: 33 hr 52 min 41 sec) 
 Total Blocks : 262144 Invalid Blocks : 0
Heartbeat CPU 5 instructions: 240000000 cycles: 255339187 heartbeat IPC: 0.397967 cumulative IPC: 0.397945 (Simulation time: 35 hr 2 min 55 sec) 
 Total Blocks : 262144 Invalid Blocks : 0
Heartbeat CPU 7 instructions: 240000000 cycles: 255339294 heartbeat IPC: 0.397972 cumulative IPC: 0.397956 (Simulation time: 35 hr 2 min 57 sec) 
 Total Blocks : 262144 Invalid Blocks : 0
Heartbeat CPU 4 instructions: 240000000 cycles: 255339396 heartbeat IPC: 0.398001 cumulative IPC: 0.397958 (Simulation time: 35 hr 2 min 57 sec) 
 Total Blocks : 262144 Invalid Blocks : 0
Heartbeat CPU 6 instructions: 240000000 cycles: 255339498 heartbeat IPC: 0.397981 cumulative IPC: 0.397962 (Simulation time: 35 hr 2 min 57 sec) 
 Total Blocks : 262144 Invalid Blocks : 0
Heartbeat CPU 2 instructions: 240000000 cycles: 255339707 heartbeat IPC: 0.397962 cumulative IPC: 0.39799 (Simulation time: 35 hr 2 min 57 sec) 
 Total Blocks : 262144 Invalid Blocks : 0
Heartbeat CPU 0 instructions: 240000000 cycles: 255341020 heartbeat IPC: 0.397977 cumulative IPC: 0.398017 (Simulation time: 35 hr 2 min 57 sec) 
 Total Blocks : 262144 Invalid Blocks : 0
Heartbeat CPU 1 instructions: 240000000 cycles: 255373081 heartbeat IPC: 0.398103 cumulative IPC: 0.397918 (Simulation time: 35 hr 3 min 1 sec) 
 Total Blocks : 262144 Invalid Blocks : 0
Heartbeat CPU 3 instructions: 240000000 cycles: 255381616 heartbeat IPC: 0.397843 cumulative IPC: 0.397802 (Simulation time: 35 hr 3 min 4 sec) 
 Total Blocks : 262144 Invalid Blocks : 0
Heartbeat CPU 6 instructions: 250000001 cycles: 281186456 heartbeat IPC: 0.386893 cumulative IPC: 0.395697 (Simulation time: 36 hr 17 min 35 sec) 
 Total Blocks : 262144 Invalid Blocks : 0
Heartbeat CPU 5 instructions: 250000001 cycles: 281186558 heartbeat IPC: 0.386887 cumulative IPC: 0.395683 (Simulation time: 36 hr 17 min 36 sec) 
 Total Blocks : 262144 Invalid Blocks : 0
Heartbeat CPU 7 instructions: 250000001 cycles: 281186660 heartbeat IPC: 0.386887 cumulative IPC: 0.395691 (Simulation time: 36 hr 17 min 36 sec) 
 Total Blocks : 262144 Invalid Blocks : 0
Heartbeat CPU 4 instructions: 250000001 cycles: 281193660 heartbeat IPC: 0.386783 cumulative IPC: 0.395671 (Simulation time: 36 hr 17 min 38 sec) 
 Total Blocks : 262144 Invalid Blocks : 0
Heartbeat CPU 2 instructions: 250000001 cycles: 281215181 heartbeat IPC: 0.386466 cumulative IPC: 0.39563 (Simulation time: 36 hr 17 min 41 sec) 
 Total Blocks : 262144 Invalid Blocks : 0
Heartbeat CPU 0 instructions: 250000001 cycles: 281215288 heartbeat IPC: 0.386484 cumulative IPC: 0.395656 (Simulation time: 36 hr 17 min 41 sec) 
 Total Blocks : 262144 Invalid Blocks : 0
Heartbeat CPU 1 instructions: 250000001 cycles: 281218465 heartbeat IPC: 0.386916 cumulative IPC: 0.395668 (Simulation time: 36 hr 17 min 41 sec) 
 Total Blocks : 262144 Invalid Blocks : 0
Heartbeat CPU 3 instructions: 250000001 cycles: 281226471 heartbeat IPC: 0.386924 cumulative IPC: 0.395578 (Simulation time: 36 hr 17 min 42 sec) 
 Total Blocks : 262144 Invalid Blocks : 0
Heartbeat CPU 6 instructions: 260000003 cycles: 306205024 heartbeat IPC: 0.399703 cumulative IPC: 0.396359 (Simulation time: 37 hr 28 min 5 sec) 
 Total Blocks : 262144 Invalid Blocks : 0
Heartbeat CPU 7 instructions: 260000003 cycles: 306205126 heartbeat IPC: 0.399705 cumulative IPC: 0.396355 (Simulation time: 37 hr 28 min 7 sec) 
 Total Blocks : 262144 Invalid Blocks : 0
Heartbeat CPU 5 instructions: 260000003 cycles: 306205228 heartbeat IPC: 0.399702 cumulative IPC: 0.396347 (Simulation time: 37 hr 28 min 7 sec) 
 Total Blocks : 262144 Invalid Blocks : 0
Heartbeat CPU 4 instructions: 260000003 cycles: 306206342 heartbeat IPC: 0.399797 cumulative IPC: 0.396353 (Simulation time: 37 hr 28 min 7 sec) 
 Total Blocks : 262144 Invalid Blocks : 0
Heartbeat CPU 3 instructions: 260000003 cycles: 306220312 heartbeat IPC: 0.400099 cumulative IPC: 0.396324 (Simulation time: 37 hr 28 min 9 sec) 
 Total Blocks : 262144 Invalid Blocks : 0
Heartbeat CPU 1 instructions: 260000003 cycles: 306220664 heartbeat IPC: 0.399965 cumulative IPC: 0.396378 (Simulation time: 37 hr 28 min 9 sec) 
 Total Blocks : 262144 Invalid Blocks : 0
Heartbeat CPU 2 instructions: 260000003 cycles: 306221010 heartbeat IPC: 0.399907 cumulative IPC: 0.396337 (Simulation time: 37 hr 28 min 9 sec) 
 Total Blocks : 262144 Invalid Blocks : 0
Heartbeat CPU 0 instructions: 260000003 cycles: 306226163 heartbeat IPC: 0.399826 cumulative IPC: 0.396345 (Simulation time: 37 hr 28 min 10 sec) 
 Total Blocks : 262144 Invalid Blocks : 0
Heartbeat CPU 5 instructions: 270000000 cycles: 331019897 heartbeat IPC: 0.402987 cumulative IPC: 0.397282 (Simulation time: 38 hr 44 min 58 sec) 
 Total Blocks : 262144 Invalid Blocks : 0
Heartbeat CPU 4 instructions: 270000000 cycles: 331026960 heartbeat IPC: 0.402891 cumulative IPC: 0.397274 (Simulation time: 38 hr 45 min 0 sec) 
 Total Blocks : 262144 Invalid Blocks : 0
Heartbeat CPU 6 instructions: 270000000 cycles: 331032266 heartbeat IPC: 0.402783 cumulative IPC: 0.397265 (Simulation time: 38 hr 45 min 0 sec) 
 Total Blocks : 262144 Invalid Blocks : 0
Heartbeat CPU 7 instructions: 270000000 cycles: 331036736 heartbeat IPC: 0.402712 cumulative IPC: 0.397251 (Simulation time: 38 hr 45 min 1 sec) 
 Total Blocks : 262144 Invalid Blocks : 0
Heartbeat CPU 1 instructions: 270000000 cycles: 331056113 heartbeat IPC: 0.40265 cumulative IPC: 0.397262 (Simulation time: 38 hr 45 min 3 sec) 
 Total Blocks : 262144 Invalid Blocks : 0
Heartbeat CPU 2 instructions: 270000000 cycles: 331056266 heartbeat IPC: 0.402653 cumulative IPC: 0.397227 (Simulation time: 38 hr 45 min 3 sec) 
 Total Blocks : 262144 Invalid Blocks : 0
Heartbeat CPU 3 instructions: 270000000 cycles: 331059805 heartbeat IPC: 0.402585 cumulative IPC: 0.397207 (Simulation time: 38 hr 45 min 4 sec) 
 Total Blocks : 262144 Invalid Blocks : 0
Heartbeat CPU 0 instructions: 270000000 cycles: 331064322 heartbeat IPC: 0.402606 cumulative IPC: 0.397227 (Simulation time: 38 hr 45 min 4 sec) 
 Total Blocks : 262144 Invalid Blocks : 0
Heartbeat CPU 5 instructions: 280000000 cycles: 355964818 heartbeat IPC: 0.400883 cumulative IPC: 0.397729 (Simulation time: 39 hr 53 min 39 sec) 
 Total Blocks : 262144 Invalid Blocks : 0
Heartbeat CPU 4 instructions: 280000000 cycles: 355964924 heartbeat IPC: 0.400995 cumulative IPC: 0.397736 (Simulation time: 39 hr 53 min 41 sec) 
 Total Blocks : 262144 Invalid Blocks : 0
Heartbeat CPU 7 instructions: 280000000 cycles: 355982151 heartbeat IPC: 0.400875 cumulative IPC: 0.3977 (Simulation time: 39 hr 53 min 42 sec) 
 Total Blocks : 262144 Invalid Blocks : 0
Heartbeat CPU 6 instructions: 280000000 cycles: 355982362 heartbeat IPC: 0.4008 cumulative IPC: 0.397703 (Simulation time: 39 hr 53 min 42 sec) 
 Total Blocks : 262144 Invalid Blocks : 0
Heartbeat CPU 3 instructions: 280000000 cycles: 356002501 heartbeat IPC: 0.400919 cumulative IPC: 0.397667 (Simulation time: 39 hr 53 min 44 sec) 
 Total Blocks : 262144 Invalid Blocks : 0
Heartbeat CPU 1 instructions: 280000000 cycles: 356003350 heartbeat IPC: 0.400846 cumulative IPC: 0.397706 (Simulation time: 39 hr 53 min 44 sec) 
 Total Blocks : 262144 Invalid Blocks : 0
Heartbeat CPU 2 instructions: 280000000 cycles: 356003452 heartbeat IPC: 0.400847 cumulative IPC: 0.397676 (Simulation time: 39 hr 53 min 44 sec) 
 Total Blocks : 262144 Invalid Blocks : 0
Heartbeat CPU 0 instructions: 280000000 cycles: 356008291 heartbeat IPC: 0.400899 cumulative IPC: 0.397683 (Simulation time: 39 hr 53 min 45 sec) 
 Total Blocks : 262144 Invalid Blocks : 0
Heartbeat CPU 5 instructions: 290000001 cycles: 381021058 heartbeat IPC: 0.399102 cumulative IPC: 0.397881 (Simulation time: 41 hr 3 min 38 sec) 
 Total Blocks : 262144 Invalid Blocks : 0
Heartbeat CPU 4 instructions: 290000001 cycles: 381021160 heartbeat IPC: 0.399102 cumulative IPC: 0.397887 (Simulation time: 41 hr 3 min 40 sec) 
 Total Blocks : 262144 Invalid Blocks : 0
Heartbeat CPU 7 instructions: 290000001 cycles: 381039386 heartbeat IPC: 0.399086 cumulative IPC: 0.397854 (Simulation time: 41 hr 3 min 42 sec) 
 Total Blocks : 262144 Invalid Blocks : 0
Heartbeat CPU 6 instructions: 290000001 cycles: 381040005 heartbeat IPC: 0.39908 cumulative IPC: 0.397856 (Simulation time: 41 hr 3 min 42 sec) 
 Total Blocks : 262144 Invalid Blocks : 0
Heartbeat CPU 1 instructions: 290000001 cycles: 381054078 heartbeat IPC: 0.39919 cumulative IPC: 0.397871 (Simulation time: 41 hr 3 min 44 sec) 
 Total Blocks : 262144 Invalid Blocks : 0
Heartbeat CPU 3 instructions: 290000001 cycles: 381054180 heartbeat IPC: 0.399175 cumulative IPC: 0.397834 (Simulation time: 41 hr 3 min 44 sec) 
 Total Blocks : 262144 Invalid Blocks : 0
Heartbeat CPU 0 instructions: 290000001 cycles: 381057328 heartbeat IPC: 0.399217 cumulative IPC: 0.397853 (Simulation time: 41 hr 3 min 44 sec) 
 Total Blocks : 262144 Invalid Blocks : 0
Heartbeat CPU 2 instructions: 290000001 cycles: 381057430 heartbeat IPC: 0.399138 cumulative IPC: 0.397838 (Simulation time: 41 hr 3 min 44 sec) 
 Total Blocks : 262144 Invalid Blocks : 0
Heartbeat CPU 4 instructions: 300000000 cycles: 406384511 heartbeat IPC: 0.39427 cumulative IPC: 0.397522 (Simulation time: 42 hr 17 min 15 sec) 
 Total Blocks : 262144 Invalid Blocks : 0
Heartbeat CPU 5 instructions: 300000000 cycles: 406384613 heartbeat IPC: 0.394266 cumulative IPC: 0.397517 (Simulation time: 42 hr 17 min 17 sec) 
 Total Blocks : 262144 Invalid Blocks : 0
Heartbeat CPU 6 instructions: 300000000 cycles: 406411204 heartbeat IPC: 0.394148 cumulative IPC: 0.397482 (Simulation time: 42 hr 17 min 20 sec) 
 Total Blocks : 262144 Invalid Blocks : 0
Heartbeat CPU 7 instructions: 300000000 cycles: 406415849 heartbeat IPC: 0.394066 cumulative IPC: 0.397472 (Simulation time: 42 hr 17 min 21 sec) 
 Total Blocks : 262144 Invalid Blocks : 0
Heartbeat CPU 1 instructions: 300000000 cycles: 406427542 heartbeat IPC: 0.394112 cumulative IPC: 0.397492 (Simulation time: 42 hr 17 min 23 sec) 
 Total Blocks : 262144 Invalid Blocks : 0
Heartbeat CPU 3 instructions: 300000000 cycles: 406427744 heartbeat IPC: 0.394111 cumulative IPC: 0.397458 (Simulation time: 42 hr 17 min 23 sec) 
 Total Blocks : 262144 Invalid Blocks : 0
Heartbeat CPU 0 instructions: 300000000 cycles: 406428010 heartbeat IPC: 0.394156 cumulative IPC: 0.39748 (Simulation time: 42 hr 17 min 23 sec) 
 Total Blocks : 262144 Invalid Blocks : 0
Heartbeat CPU 2 instructions: 300000000 cycles: 406428078 heartbeat IPC: 0.394156 cumulative IPC: 0.397467 (Simulation time: 42 hr 17 min 23 sec) 
 Total Blocks : 262144 Invalid Blocks : 0
Heartbeat CPU 4 instructions: 310000000 cycles: 431365958 heartbeat IPC: 0.400297 cumulative IPC: 0.397773 (Simulation time: 43 hr 25 min 19 sec) 
 Total Blocks : 262144 Invalid Blocks : 0
Heartbeat CPU 5 instructions: 310000000 cycles: 431366060 heartbeat IPC: 0.400297 cumulative IPC: 0.397768 (Simulation time: 43 hr 25 min 20 sec) 
 Total Blocks : 262144 Invalid Blocks : 0
Heartbeat CPU 6 instructions: 310000000 cycles: 431386266 heartbeat IPC: 0.400399 cumulative IPC: 0.397745 (Simulation time: 43 hr 25 min 22 sec) 
 Total Blocks : 262144 Invalid Blocks : 0
Heartbeat CPU 7 instructions: 310000000 cycles: 431386373 heartbeat IPC: 0.400472 cumulative IPC: 0.397743 (Simulation time: 43 hr 25 min 22 sec) 
 Total Blocks : 262144 Invalid Blocks : 0
Heartbeat CPU 1 instructions: 310000000 cycles: 431410859 heartbeat IPC: 0.400267 cumulative IPC: 0.397742 (Simulation time: 43 hr 25 min 25 sec) 
 Total Blocks : 262144 Invalid Blocks : 0
Heartbeat CPU 2 instructions: 310000000 cycles: 431410961 heartbeat IPC: 0.400274 cumulative IPC: 0.39772 (Simulation time: 43 hr 25 min 25 sec) 
 Total Blocks : 262144 Invalid Blocks : 0
Heartbeat CPU 3 instructions: 310000000 cycles: 431411063 heartbeat IPC: 0.400267 cumulative IPC: 0.397712 (Simulation time: 43 hr 25 min 25 sec) 
 Total Blocks : 262144 Invalid Blocks : 0
Heartbeat CPU 0 instructions: 310000000 cycles: 431411215 heartbeat IPC: 0.400269 cumulative IPC: 0.397732 (Simulation time: 43 hr 25 min 25 sec) 
 Total Blocks : 262144 Invalid Blocks : 0
Heartbeat CPU 5 instructions: 320000000 cycles: 456583261 heartbeat IPC: 0.396555 cumulative IPC: 0.397666 (Simulation time: 44 hr 32 min 52 sec) 
 Total Blocks : 262144 Invalid Blocks : 0
Heartbeat CPU 4 instructions: 320000000 cycles: 456583370 heartbeat IPC: 0.396551 cumulative IPC: 0.397671 (Simulation time: 44 hr 32 min 54 sec) 
 Total Blocks : 262144 Invalid Blocks : 0
Heartbeat CPU 7 instructions: 320000000 cycles: 456602067 heartbeat IPC: 0.396578 cumulative IPC: 0.397645 (Simulation time: 44 hr 32 min 59 sec) 
 Total Blocks : 262144 Invalid Blocks : 0
Heartbeat CPU 6 instructions: 320000000 cycles: 456602271 heartbeat IPC: 0.396574 cumulative IPC: 0.397647 (Simulation time: 44 hr 32 min 59 sec) 
 Total Blocks : 262144 Invalid Blocks : 0
Heartbeat CPU 2 instructions: 320000000 cycles: 456634332 heartbeat IPC: 0.396458 cumulative IPC: 0.397615 (Simulation time: 44 hr 33 min 9 sec) 
 Total Blocks : 262144 Invalid Blocks : 0
Heartbeat CPU 3 instructions: 320000000 cycles: 456634434 heartbeat IPC: 0.396458 cumulative IPC: 0.397607 (Simulation time: 44 hr 33 min 9 sec) 
 Total Blocks : 262144 Invalid Blocks : 0
Heartbeat CPU 1 instructions: 320000000 cycles: 456634536 heartbeat IPC: 0.396453 cumulative IPC: 0.397635 (Simulation time: 44 hr 33 min 9 sec) 
 Total Blocks : 262144 Invalid Blocks : 0
Heartbeat CPU 0 instructions: 320000000 cycles: 456634638 heartbeat IPC: 0.396457 cumulative IPC: 0.397625 (Simulation time: 44 hr 33 min 9 sec) 
 Total Blocks : 262144 Invalid Blocks : 0
Heartbeat CPU 5 instructions: 330000000 cycles: 481901710 heartbeat IPC: 0.394969 cumulative IPC: 0.397458 (Simulation time: 45 hr 46 min 38 sec) 
 Total Blocks : 262144 Invalid Blocks : 0
Heartbeat CPU 4 instructions: 330000000 cycles: 481901812 heartbeat IPC: 0.394969 cumulative IPC: 0.397462 (Simulation time: 45 hr 46 min 39 sec) 
 Total Blocks : 262144 Invalid Blocks : 0
Heartbeat CPU 6 instructions: 330000000 cycles: 481917072 heartbeat IPC: 0.395026 cumulative IPC: 0.397444 (Simulation time: 45 hr 46 min 40 sec) 
 Total Blocks : 262144 Invalid Blocks : 0
Heartbeat CPU 7 instructions: 330000000 cycles: 481917174 heartbeat IPC: 0.395021 cumulative IPC: 0.397442 (Simulation time: 45 hr 46 min 40 sec) 
 Total Blocks : 262144 Invalid Blocks : 0
Heartbeat CPU 0 instructions: 330000000 cycles: 481947257 heartbeat IPC: 0.39506 cumulative IPC: 0.397427 (Simulation time: 45 hr 46 min 43 sec) 
 Total Blocks : 262144 Invalid Blocks : 0
Heartbeat CPU 1 instructions: 330000000 cycles: 481947359 heartbeat IPC: 0.395057 cumulative IPC: 0.397435 (Simulation time: 45 hr 46 min 43 sec) 
 Total Blocks : 262144 Invalid Blocks : 0
Heartbeat CPU 3 instructions: 330000000 cycles: 481948192 heartbeat IPC: 0.395042 cumulative IPC: 0.397409 (Simulation time: 45 hr 46 min 43 sec) 
 Total Blocks : 262144 Invalid Blocks : 0
Heartbeat CPU 2 instructions: 330000000 cycles: 481954224 heartbeat IPC: 0.394946 cumulative IPC: 0.397408 (Simulation time: 45 hr 46 min 44 sec) 
 Total Blocks : 262144 Invalid Blocks : 0
Heartbeat CPU 6 instructions: 340000001 cycles: 506892328 heartbeat IPC: 0.400396 cumulative IPC: 0.397654 (Simulation time: 46 hr 43 min 54 sec) 
 Total Blocks : 262144 Invalid Blocks : 0
Heartbeat CPU 5 instructions: 340000001 cycles: 506892430 heartbeat IPC: 0.400149 cumulative IPC: 0.397649 (Simulation time: 46 hr 43 min 56 sec) 
 Total Blocks : 262144 Invalid Blocks : 0
Heartbeat CPU 4 instructions: 340000001 cycles: 506892532 heartbeat IPC: 0.400149 cumulative IPC: 0.397652 (Simulation time: 46 hr 43 min 56 sec) 
 Total Blocks : 262144 Invalid Blocks : 0
Heartbeat CPU 7 instructions: 340000001 cycles: 506892857 heartbeat IPC: 0.400389 cumulative IPC: 0.397651 (Simulation time: 46 hr 43 min 56 sec) 
 Total Blocks : 262144 Invalid Blocks : 0
Heartbeat CPU 1 instructions: 340000001 cycles: 506922987 heartbeat IPC: 0.40039 cumulative IPC: 0.397645 (Simulation time: 46 hr 43 min 59 sec) 
 Total Blocks : 262144 Invalid Blocks : 0
Heartbeat CPU 0 instructions: 340000001 cycles: 506923089 heartbeat IPC: 0.400387 cumulative IPC: 0.397637 (Simulation time: 46 hr 43 min 59 sec) 
 Total Blocks : 262144 Invalid Blocks : 0
Heartbeat CPU 3 instructions: 340000001 cycles: 506923479 heartbeat IPC: 0.400396 cumulative IPC: 0.397621 (Simulation time: 46 hr 43 min 59 sec) 
 Total Blocks : 262144 Invalid Blocks : 0
Heartbeat CPU 2 instructions: 340000001 cycles: 506934736 heartbeat IPC: 0.400312 cumulative IPC: 0.397614 (Simulation time: 46 hr 44 min 0 sec) 
 Total Blocks : 262144 Invalid Blocks : 0
Heartbeat CPU 5 instructions: 350000003 cycles: 532116544 heartbeat IPC: 0.396446 cumulative IPC: 0.397568 (Simulation time: 47 hr 41 min 53 sec) 
 Total Blocks : 262144 Invalid Blocks : 0
Heartbeat CPU 7 instructions: 350000003 cycles: 532116897 heartbeat IPC: 0.396447 cumulative IPC: 0.397571 (Simulation time: 47 hr 41 min 54 sec) 
 Total Blocks : 262144 Invalid Blocks : 0
Heartbeat CPU 6 instructions: 350000003 cycles: 532116999 heartbeat IPC: 0.396437 cumulative IPC: 0.397572 (Simulation time: 47 hr 41 min 54 sec) 
 Total Blocks : 262144 Invalid Blocks : 0
Heartbeat CPU 4 instructions: 350000003 cycles: 532119458 heartbeat IPC: 0.396402 cumulative IPC: 0.397569 (Simulation time: 47 hr 41 min 55 sec) 
 Total Blocks : 262144 Invalid Blocks : 0
Heartbeat CPU 1 instructions: 350000003 cycles: 532136864 heartbeat IPC: 0.396607 cumulative IPC: 0.397575 (Simulation time: 47 hr 41 min 56 sec) 
 Total Blocks : 262144 Invalid Blocks : 0
Heartbeat CPU 0 instructions: 350000003 cycles: 532136966 heartbeat IPC: 0.396607 cumulative IPC: 0.397568 (Simulation time: 47 hr 41 min 56 sec) 
 Total Blocks : 262144 Invalid Blocks : 0
Heartbeat CPU 3 instructions: 350000003 cycles: 532137170 heartbeat IPC: 0.39661 cumulative IPC: 0.397553 (Simulation time: 47 hr 41 min 56 sec) 
 Total Blocks : 262144 Invalid Blocks : 0
Heartbeat CPU 2 instructions: 350000003 cycles: 532151899 heartbeat IPC: 0.396555 cumulative IPC: 0.397543 (Simulation time: 47 hr 41 min 58 sec) 
 Total Blocks : 262144 Invalid Blocks : 0
Heartbeat CPU 4 instructions: 360000003 cycles: 557407640 heartbeat IPC: 0.395442 cumulative IPC: 0.397435 (Simulation time: 48 hr 44 min 26 sec) 
 Total Blocks : 262144 Invalid Blocks : 0
Heartbeat CPU 7 instructions: 360000003 cycles: 557407737 heartbeat IPC: 0.3954 cumulative IPC: 0.397434 (Simulation time: 48 hr 44 min 28 sec) 
 Total Blocks : 262144 Invalid Blocks : 0
Heartbeat CPU 6 instructions: 360000003 cycles: 557413130 heartbeat IPC: 0.395317 cumulative IPC: 0.397431 (Simulation time: 48 hr 44 min 29 sec) 
 Total Blocks : 262144 Invalid Blocks : 0
Heartbeat CPU 5 instructions: 360000003 cycles: 557413232 heartbeat IPC: 0.395309 cumulative IPC: 0.397426 (Simulation time: 48 hr 44 min 29 sec) 
 Total Blocks : 262144 Invalid Blocks : 0
Heartbeat CPU 1 instructions: 360000003 cycles: 557435442 heartbeat IPC: 0.395279 cumulative IPC: 0.397431 (Simulation time: 48 hr 44 min 31 sec) 
 Total Blocks : 262144 Invalid Blocks : 0
Heartbeat CPU 0 instructions: 360000003 cycles: 557435493 heartbeat IPC: 0.39528 cumulative IPC: 0.397424 (Simulation time: 48 hr 44 min 31 sec) 
 Total Blocks : 262144 Invalid Blocks : 0
Heartbeat CPU 3 instructions: 360000003 cycles: 557435948 heartbeat IPC: 0.395276 cumulative IPC: 0.39741 (Simulation time: 48 hr 44 min 31 sec) 
 Total Blocks : 262144 Invalid Blocks : 0
Heartbeat CPU 2 instructions: 360000003 cycles: 557458870 heartbeat IPC: 0.395148 cumulative IPC: 0.397393 (Simulation time: 48 hr 44 min 32 sec) 
 Total Blocks : 262144 Invalid Blocks : 0
Heartbeat CPU 4 instructions: 370000003 cycles: 582393632 heartbeat IPC: 0.400224 cumulative IPC: 0.397598 (Simulation time: 49 hr 43 min 1 sec) 
 Total Blocks : 262144 Invalid Blocks : 0
Heartbeat CPU 7 instructions: 370000003 cycles: 582393734 heartbeat IPC: 0.400224 cumulative IPC: 0.397597 (Simulation time: 49 hr 43 min 3 sec) 
 Total Blocks : 262144 Invalid Blocks : 0
Heartbeat CPU 6 instructions: 370000003 cycles: 582403690 heartbeat IPC: 0.400151 cumulative IPC: 0.39759 (Simulation time: 49 hr 43 min 4 sec) 
 Total Blocks : 262144 Invalid Blocks : 0
Heartbeat CPU 5 instructions: 370000003 cycles: 582403792 heartbeat IPC: 0.400151 cumulative IPC: 0.397585 (Simulation time: 49 hr 43 min 4 sec) 
 Total Blocks : 262144 Invalid Blocks : 0
Heartbeat CPU 3 instructions: 370000003 cycles: 582423080 heartbeat IPC: 0.400206 cumulative IPC: 0.397573 (Simulation time: 49 hr 43 min 6 sec) 
 Total Blocks : 262144 Invalid Blocks : 0
Heartbeat CPU 1 instructions: 370000003 cycles: 582423830 heartbeat IPC: 0.400186 cumulative IPC: 0.397592 (Simulation time: 49 hr 43 min 6 sec) 
 Total Blocks : 262144 Invalid Blocks : 0
Heartbeat CPU 0 instructions: 370000003 cycles: 582424797 heartbeat IPC: 0.400171 cumulative IPC: 0.397585 (Simulation time: 49 hr 43 min 6 sec) 
 Total Blocks : 262144 Invalid Blocks : 0
Heartbeat CPU 2 instructions: 370000003 cycles: 582453593 heartbeat IPC: 0.400084 cumulative IPC: 0.39755 (Simulation time: 49 hr 43 min 9 sec) 
 Total Blocks : 262144 Invalid Blocks : 0
Heartbeat CPU 7 instructions: 380000001 cycles: 607659928 heartbeat IPC: 0.395786 cumulative IPC: 0.397496 (Simulation time: 50 hr 38 min 26 sec) 
 Total Blocks : 262144 Invalid Blocks : 0
Heartbeat CPU 5 instructions: 380000001 cycles: 607660227 heartbeat IPC: 0.395939 cumulative IPC: 0.397494 (Simulation time: 50 hr 38 min 28 sec) 
 Total Blocks : 262144 Invalid Blocks : 0
Heartbeat CPU 6 instructions: 380000001 cycles: 607660346 heartbeat IPC: 0.395935 cumulative IPC: 0.397498 (Simulation time: 50 hr 38 min 28 sec) 
 Total Blocks : 262144 Invalid Blocks : 0
Heartbeat CPU 4 instructions: 380000001 cycles: 607662346 heartbeat IPC: 0.395746 cumulative IPC: 0.397495 (Simulation time: 50 hr 38 min 28 sec) 
 Total Blocks : 262144 Invalid Blocks : 0
Heartbeat CPU 1 instructions: 380000001 cycles: 607681356 heartbeat IPC: 0.395922 cumulative IPC: 0.397499 (Simulation time: 50 hr 38 min 30 sec) 
 Total Blocks : 262144 Invalid Blocks : 0
Heartbeat CPU 0 instructions: 380000001 cycles: 607681925 heartbeat IPC: 0.395928 cumulative IPC: 0.397492 (Simulation time: 50 hr 38 min 30 sec) 
 Total Blocks : 262144 Invalid Blocks : 0
Heartbeat CPU 3 instructions: 380000001 cycles: 607682027 heartbeat IPC: 0.395899 cumulative IPC: 0.39748 (Simulation time: 50 hr 38 min 30 sec) 
 Total Blocks : 262144 Invalid Blocks : 0
Heartbeat CPU 2 instructions: 380000001 cycles: 607711674 heartbeat IPC: 0.395913 cumulative IPC: 0.397459 (Simulation time: 50 hr 38 min 33 sec) 
 Total Blocks : 262144 Invalid Blocks : 0
Heartbeat CPU 5 instructions: 390000000 cycles: 632411015 heartbeat IPC: 0.404027 cumulative IPC: 0.397832 (Simulation time: 51 hr 44 min 9 sec) 
 Total Blocks : 262144 Invalid Blocks : 0
Heartbeat CPU 4 instructions: 390000000 cycles: 632419515 heartbeat IPC: 0.403923 cumulative IPC: 0.397828 (Simulation time: 51 hr 44 min 11 sec) 
 Total Blocks : 262144 Invalid Blocks : 0
Heartbeat CPU 6 instructions: 390000000 cycles: 632419636 heartbeat IPC: 0.403889 cumulative IPC: 0.397829 (Simulation time: 51 hr 44 min 11 sec) 
 Total Blocks : 262144 Invalid Blocks : 0
Heartbeat CPU 7 instructions: 390000000 cycles: 632419771 heartbeat IPC: 0.40388 cumulative IPC: 0.397827 (Simulation time: 51 hr 44 min 11 sec) 
 Total Blocks : 262144 Invalid Blocks : 0
Heartbeat CPU 1 instructions: 390000000 cycles: 632439582 heartbeat IPC: 0.403906 cumulative IPC: 0.397831 (Simulation time: 51 hr 44 min 13 sec) 
 Total Blocks : 262144 Invalid Blocks : 0
Heartbeat CPU 3 instructions: 390000000 cycles: 632443922 heartbeat IPC: 0.403846 cumulative IPC: 0.39781 (Simulation time: 51 hr 44 min 13 sec) 
 Total Blocks : 262144 Invalid Blocks : 0
Heartbeat CPU 0 instructions: 390000000 cycles: 632448032 heartbeat IPC: 0.403778 cumulative IPC: 0.397818 (Simulation time: 51 hr 44 min 14 sec) 
 Total Blocks : 262144 Invalid Blocks : 0
Heartbeat CPU 2 instructions: 390000000 cycles: 632480093 heartbeat IPC: 0.40374 cumulative IPC: 0.397785 (Simulation time: 51 hr 44 min 16 sec) 
 Total Blocks : 262144 Invalid Blocks : 0
Heartbeat CPU 5 instructions: 400000001 cycles: 657396788 heartbeat IPC: 0.400228 cumulative IPC: 0.397951 (Simulation time: 52 hr 37 min 44 sec) 
 Total Blocks : 262144 Invalid Blocks : 0
Heartbeat CPU 4 instructions: 400000001 cycles: 657396990 heartbeat IPC: 0.400361 cumulative IPC: 0.397954 (Simulation time: 52 hr 37 min 46 sec) 
 Total Blocks : 262144 Invalid Blocks : 0
Heartbeat CPU 6 instructions: 400000001 cycles: 657397264 heartbeat IPC: 0.400358 cumulative IPC: 0.397955 (Simulation time: 52 hr 37 min 46 sec) 
 Total Blocks : 262144 Invalid Blocks : 0
Heartbeat CPU 1 instructions: 400000001 cycles: 657407731 heartbeat IPC: 0.40051 cumulative IPC: 0.397964 (Simulation time: 52 hr 37 min 47 sec) 
 Total Blocks : 262144 Invalid Blocks : 0
Finished CPU 1 instructions: 200000001 cycles: 502557864 cumulative IPC: 0.397964 (Simulation time: 52 hr 37 min 47 sec) 
Heartbeat CPU 7 instructions: 400000001 cycles: 657407996 heartbeat IPC: 0.400189 cumulative IPC: 0.397945 (Simulation time: 52 hr 37 min 47 sec) 
 Total Blocks : 262144 Invalid Blocks : 0
Heartbeat CPU 0 instructions: 400000001 cycles: 657417856 heartbeat IPC: 0.400483 cumulative IPC: 0.397951 (Simulation time: 52 hr 37 min 48 sec) 
 Total Blocks : 262144 Invalid Blocks : 0
Finished CPU 6 instructions: 200000003 cycles: 502570092 cumulative IPC: 0.397954 (Simulation time: 52 hr 37 min 49 sec) 
Finished CPU 4 instructions: 200000000 cycles: 502570538 cumulative IPC: 0.397954 (Simulation time: 52 hr 37 min 49 sec) 
Finished CPU 5 instructions: 200000000 cycles: 502573928 cumulative IPC: 0.397951 (Simulation time: 52 hr 37 min 49 sec) 
Finished CPU 0 instructions: 200000002 cycles: 502574776 cumulative IPC: 0.397951 (Simulation time: 52 hr 37 min 49 sec) 
Finished CPU 7 instructions: 200000000 cycles: 502582281 cumulative IPC: 0.397945 (Simulation time: 52 hr 37 min 50 sec) 
Heartbeat CPU 3 instructions: 400000001 cycles: 657439300 heartbeat IPC: 0.400074 cumulative IPC: 0.397923 (Simulation time: 52 hr 37 min 50 sec) 
 Total Blocks : 262144 Invalid Blocks : 0
Finished CPU 3 instructions: 200000000 cycles: 502609734 cumulative IPC: 0.397923 (Simulation time: 52 hr 37 min 52 sec) 
Heartbeat CPU 2 instructions: 400000001 cycles: 657490041 heartbeat IPC: 0.399841 cumulative IPC: 0.397887 (Simulation time: 52 hr 37 min 55 sec) 
 Total Blocks : 262144 Invalid Blocks : 0
Finished CPU 2 instructions: 200000002 cycles: 502655227 cumulative IPC: 0.397887 (Simulation time: 52 hr 37 min 57 sec) 

CPU 0 Branch Prediction Accuracy: 94.1237% MPKI: 12.4851 Average ROB Occupancy at Mispredict: 116.238

CPU 1 Branch Prediction Accuracy: 94.1237% MPKI: 12.4853 Average ROB Occupancy at Mispredict: 116.236

CPU 2 Branch Prediction Accuracy: 94.1237% MPKI: 12.4849 Average ROB Occupancy at Mispredict: 116.226

CPU 3 Branch Prediction Accuracy: 94.1237% MPKI: 12.4848 Average ROB Occupancy at Mispredict: 116.232

CPU 4 Branch Prediction Accuracy: 94.1237% MPKI: 12.4847 Average ROB Occupancy at Mispredict: 116.238

CPU 5 Branch Prediction Accuracy: 94.1237% MPKI: 12.4846 Average ROB Occupancy at Mispredict: 116.242

CPU 6 Branch Prediction Accuracy: 94.1237% MPKI: 12.4847 Average ROB Occupancy at Mispredict: 116.229

CPU 7 Branch Prediction Accuracy: 94.1237% MPKI: 12.4847 Average ROB Occupancy at Mispredict: 116.24

ChampSim completed all CPUs

Total Simulation Statistics (not including warmup)

CPU 0 cumulative IPC: 0.397951 instructions: 200032250 cycles: 502655226
ITLB TOTAL     ACCESS: 22831820  HIT: 22831820  MISS:     0  HIT %:   100  MISS %:     0  AVERAGE MISS PENALTY: 0
ITLB LOAD      ACCESS: 22831820  HIT: 22831820  MISS:     0  HIT %:   100  MISS %:     0  AVERAGE MISS PENALTY: 0
ITLB RFO       ACCESS:     0  HIT:     0  MISS:     0  HIT %:     0  MISS %:     0  AVERAGE MISS PENALTY: 0
ITLB PREFETCH  ACCESS:     0  HIT:     0  MISS:     0  HIT %:     0  MISS %:     0  AVERAGE MISS PENALTY: 0
ITLB WRITEBACK ACCESS:     0  HIT:     0  MISS:     0  HIT %:     0  MISS %:     0  AVERAGE MISS PENALTY: 0

DTLB TOTAL     ACCESS: 63718974  HIT: 63656032  MISS: 62942  HIT %: 99.9012  MISS %: 0.0987806  AVERAGE MISS PENALTY: 75.3862
DTLB LOAD      ACCESS: 41276932  HIT: 41214155  MISS: 62777  HIT %: 99.8479  MISS %: 0.152087  AVERAGE MISS PENALTY: 75.4953
DTLB RFO       ACCESS: 22442042  HIT: 22441877  MISS:   165  HIT %: 99.9993  MISS %: 0.000735227  AVERAGE MISS PENALTY: 33.8485
DTLB PREFETCH  ACCESS:     0  HIT:     0  MISS:     0  HIT %:     0  MISS %:     0  AVERAGE MISS PENALTY: 0
DTLB WRITEBACK ACCESS:     0  HIT:     0  MISS:     0  HIT %:     0  MISS %:     0  AVERAGE MISS PENALTY: 0

STLB TOTAL     ACCESS: 62942  HIT: 21349  MISS: 41593  HIT %: 33.9185  MISS %: 66.0815  AVERAGE MISS PENALTY: 100
STLB LOAD      ACCESS: 62777  HIT: 21225  MISS: 41552  HIT %: 33.8102  MISS %: 66.1898  AVERAGE MISS PENALTY: 100
STLB RFO       ACCESS:   165  HIT:   124  MISS:    41  HIT %: 75.1515  MISS %: 24.8485  AVERAGE MISS PENALTY: 100
STLB PREFETCH  ACCESS:     0  HIT:     0  MISS:     0  HIT %:     0  MISS %:     0  AVERAGE MISS PENALTY: 0
STLB WRITEBACK ACCESS:     0  HIT:     0  MISS:     0  HIT %:     0  MISS %:     0  AVERAGE MISS PENALTY: 0

L1D TOTAL     ACCESS: 109072034  HIT: 105536578  MISS: 3535456  HIT %: 96.7586  MISS %: 3.2414  AVERAGE MISS PENALTY: 533861
L1D LOAD      ACCESS: 39886813  HIT: 39719130  MISS: 167683  HIT %: 99.5796  MISS %: 0.420397  AVERAGE MISS PENALTY: 1.11798e+07
L1D RFO       ACCESS: 22559906  HIT: 22558607  MISS:  1299  HIT %: 99.9942  MISS %: 0.005758  AVERAGE MISS PENALTY: 9.75741e+06
L1D PREFETCH  ACCESS: 46625315  HIT: 43258841  MISS: 3366474  HIT %: 92.7797  MISS %: 7.22027  AVERAGE MISS PENALTY: 28.6775
L1D WRITEBACK ACCESS:     0  HIT:     0  MISS:     0  HIT %:     0  MISS %:     0  AVERAGE MISS PENALTY: 0

L1I TOTAL     ACCESS: 35339325  HIT: 35339325  MISS:     0  HIT %:   100  MISS %:     0  AVERAGE MISS PENALTY: 0
L1I LOAD      ACCESS: 35339325  HIT: 35339325  MISS:     0  HIT %:   100  MISS %:     0  AVERAGE MISS PENALTY: 0
L1I RFO       ACCESS:     0  HIT:     0  MISS:     0  HIT %:     0  MISS %:     0  AVERAGE MISS PENALTY: 0
L1I PREFETCH  ACCESS:     0  HIT:     0  MISS:     0  HIT %:     0  MISS %:     0  AVERAGE MISS PENALTY: 0
L1I WRITEBACK ACCESS:     0  HIT:     0  MISS:     0  HIT %:     0  MISS %:     0  AVERAGE MISS PENALTY: 0

L2C TOTAL     ACCESS: 9128424  HIT: 7265718  MISS: 1862706  HIT %: 79.5944  MISS %: 20.4056  AVERAGE MISS PENALTY: 669322
L2C LOAD      ACCESS: 167076  HIT: 98321  MISS: 68755  HIT %: 58.8481  MISS %: 41.1519  AVERAGE MISS PENALTY: 1.81294e+07
L2C RFO       ACCESS:  1270  HIT:   746  MISS:   524  HIT %: 58.7402  MISS %: 41.2598  AVERAGE MISS PENALTY: 218.977
L2C PREFETCH  ACCESS: 8918719  HIT: 7125365  MISS: 1793354  HIT %: 79.8922  MISS %: 20.1078  AVERAGE MISS PENALTY: 145.815
L2C WRITEBACK ACCESS: 41359  HIT: 41286  MISS:    73  HIT %: 99.8235  MISS %: 0.176503  AVERAGE MISS PENALTY: 0


LLC0 TOTAL     ACCESS: 234543  HIT: 11106  MISS: 223437  HIT %: 4.73517  MISS %: 95.2648  AVERAGE MISS PENALTY: 118.747
LLC0 LOAD      ACCESS: 29636  HIT:  1003  MISS: 28633  HIT %: 3.3844  MISS %: 96.6156  AVERAGE MISS PENALTY: 123.583
LLC0 RFO       ACCESS:    79  HIT:     1  MISS:    78  HIT %: 1.26582  MISS %: 98.7342  AVERAGE MISS PENALTY: 199.615
LLC0 PREFETCH  ACCESS: 202011  HIT:  8831  MISS: 193180  HIT %: 4.37154  MISS %: 95.6285  AVERAGE MISS PENALTY: 118.948
LLC0 WRITEBACK ACCESS:  2817  HIT:  1271  MISS:  1546  HIT %: 45.1189  MISS %: 54.8811  AVERAGE MISS PENALTY: 0

LLC1 TOTAL     ACCESS: 235494  HIT: 11415  MISS: 224079  HIT %: 4.84726  MISS %: 95.1527  AVERAGE MISS PENALTY: 118.422
LLC1 LOAD      ACCESS:  5145  HIT:   573  MISS:  4572  HIT %: 11.137  MISS %: 88.863  AVERAGE MISS PENALTY: 178.129
LLC1 RFO       ACCESS:    65  HIT:     9  MISS:    56  HIT %: 13.8462  MISS %: 86.1538  AVERAGE MISS PENALTY: 210.661
LLC1 PREFETCH  ACCESS: 227584  HIT:  9645  MISS: 217939  HIT %: 4.238  MISS %: 95.762  AVERAGE MISS PENALTY: 117.967
LLC1 WRITEBACK ACCESS:  2700  HIT:  1188  MISS:  1512  HIT %:    44  MISS %:    56  AVERAGE MISS PENALTY: 0

LLC2 TOTAL     ACCESS: 234344  HIT: 10623  MISS: 223721  HIT %: 4.53308  MISS %: 95.4669  AVERAGE MISS PENALTY: 117.797
LLC2 LOAD      ACCESS:  4770  HIT:   448  MISS:  4322  HIT %: 9.39203  MISS %: 90.608  AVERAGE MISS PENALTY: 174.184
LLC2 RFO       ACCESS:    82  HIT:    24  MISS:    58  HIT %: 29.2683  MISS %: 70.7317  AVERAGE MISS PENALTY: 193.5
LLC2 PREFETCH  ACCESS: 226825  HIT:  8985  MISS: 217840  HIT %: 3.9612  MISS %: 96.0388  AVERAGE MISS PENALTY: 117.47
LLC2 WRITEBACK ACCESS:  2667  HIT:  1166  MISS:  1501  HIT %: 43.7195  MISS %: 56.2805  AVERAGE MISS PENALTY: 0

LLC3 TOTAL     ACCESS: 235741  HIT: 11763  MISS: 223978  HIT %: 4.9898  MISS %: 95.0102  AVERAGE MISS PENALTY: 114.117
LLC3 LOAD      ACCESS:  5701  HIT:  1192  MISS:  4509  HIT %: 20.9086  MISS %: 79.0914  AVERAGE MISS PENALTY: 177.943
LLC3 RFO       ACCESS:    74  HIT:     8  MISS:    66  HIT %: 10.8108  MISS %: 89.1892  AVERAGE MISS PENALTY: 193.182
LLC3 PREFETCH  ACCESS: 227249  HIT:  9358  MISS: 217891  HIT %: 4.11795  MISS %: 95.8821  AVERAGE MISS PENALTY: 113.564
LLC3 WRITEBACK ACCESS:  2717  HIT:  1205  MISS:  1512  HIT %: 44.3504  MISS %: 55.6496  AVERAGE MISS PENALTY: 0

LLC4 TOTAL     ACCESS: 236663  HIT: 12536  MISS: 224127  HIT %: 5.29698  MISS %: 94.703  AVERAGE MISS PENALTY: 118.476
LLC4 LOAD      ACCESS:  6179  HIT:  1819  MISS:  4360  HIT %: 29.4384  MISS %: 70.5616  AVERAGE MISS PENALTY: 182.89
LLC4 RFO       ACCESS:    66  HIT:     6  MISS:    60  HIT %: 9.09091  MISS %: 90.9091  AVERAGE MISS PENALTY: 207.983
LLC4 PREFETCH  ACCESS: 227693  HIT:  9541  MISS: 218152  HIT %: 4.19029  MISS %: 95.8097  AVERAGE MISS PENALTY: 118.008
LLC4 WRITEBACK ACCESS:  2725  HIT:  1170  MISS:  1555  HIT %: 42.9358  MISS %: 57.0642  AVERAGE MISS PENALTY: 0

LLC5 TOTAL     ACCESS: 236349  HIT: 12186  MISS: 224163  HIT %: 5.15593  MISS %: 94.8441  AVERAGE MISS PENALTY: 119.171
LLC5 LOAD      ACCESS:  4536  HIT:   452  MISS:  4084  HIT %: 9.96473  MISS %: 90.0353  AVERAGE MISS PENALTY: 182.225
LLC5 RFO       ACCESS:    55  HIT:     3  MISS:    52  HIT %: 5.45455  MISS %: 94.5455  AVERAGE MISS PENALTY: 206.712
LLC5 PREFETCH  ACCESS: 228957  HIT: 10498  MISS: 218459  HIT %: 4.58514  MISS %: 95.4149  AVERAGE MISS PENALTY: 118.826
LLC5 WRITEBACK ACCESS:  2801  HIT:  1233  MISS:  1568  HIT %: 44.02  MISS %: 55.98  AVERAGE MISS PENALTY: 0

LLC6 TOTAL     ACCESS: 235376  HIT: 11576  MISS: 223800  HIT %: 4.91809  MISS %: 95.0819  AVERAGE MISS PENALTY: 113.349
LLC6 LOAD      ACCESS:  4611  HIT:   529  MISS:  4082  HIT %: 11.4726  MISS %: 88.5274  AVERAGE MISS PENALTY: 176.122
LLC6 RFO       ACCESS:    54  HIT:     0  MISS:    54  HIT %:     0  MISS %:   100  AVERAGE MISS PENALTY: 190.759
LLC6 PREFETCH  ACCESS: 227913  HIT:  9833  MISS: 218080  HIT %: 4.31437  MISS %: 95.6856  AVERAGE MISS PENALTY: 112.978
LLC6 WRITEBACK ACCESS:  2798  HIT:  1214  MISS:  1584  HIT %: 43.3881  MISS %: 56.6119  AVERAGE MISS PENALTY: 0

LLC7 TOTAL     ACCESS: 236297  HIT: 12336  MISS: 223961  HIT %: 5.22055  MISS %: 94.7795  AVERAGE MISS PENALTY: 116.087
LLC7 LOAD      ACCESS:  5393  HIT:  1007  MISS:  4386  HIT %: 18.6724  MISS %: 81.3276  AVERAGE MISS PENALTY: 179.037
LLC7 RFO       ACCESS:    49  HIT:     0  MISS:    49  HIT %:     0  MISS %:   100  AVERAGE MISS PENALTY: 181.388
LLC7 PREFETCH  ACCESS: 227905  HIT:  9924  MISS: 217981  HIT %: 4.35445  MISS %: 95.6456  AVERAGE MISS PENALTY: 115.629
LLC7 WRITEBACK ACCESS:  2950  HIT:  1405  MISS:  1545  HIT %: 47.6271  MISS %: 52.3729  AVERAGE MISS PENALTY: 0

Total Rob stall cycles : 	458702847
Total Load Rob Stall cycles : 	32977192
Average Rob Stall cycles : 	 8
Average Load Rob Stall cycles : 	 11

CPU 1 cumulative IPC: 0.397965 instructions: 200039113 cycles: 502655226
ITLB TOTAL     ACCESS: 22832561  HIT: 22832561  MISS:     0  HIT %:   100  MISS %:     0  AVERAGE MISS PENALTY: 0
ITLB LOAD      ACCESS: 22832561  HIT: 22832561  MISS:     0  HIT %:   100  MISS %:     0  AVERAGE MISS PENALTY: 0
ITLB RFO       ACCESS:     0  HIT:     0  MISS:     0  HIT %:     0  MISS %:     0  AVERAGE MISS PENALTY: 0
ITLB PREFETCH  ACCESS:     0  HIT:     0  MISS:     0  HIT %:     0  MISS %:     0  AVERAGE MISS PENALTY: 0
ITLB WRITEBACK ACCESS:     0  HIT:     0  MISS:     0  HIT %:     0  MISS %:     0  AVERAGE MISS PENALTY: 0

DTLB TOTAL     ACCESS: 63721342  HIT: 63658394  MISS: 62948  HIT %: 99.9012  MISS %: 0.0987864  AVERAGE MISS PENALTY: 75.368
DTLB LOAD      ACCESS: 41278498  HIT: 41215717  MISS: 62781  HIT %: 99.8479  MISS %: 0.152091  AVERAGE MISS PENALTY: 75.4777
DTLB RFO       ACCESS: 22442844  HIT: 22442677  MISS:   167  HIT %: 99.9993  MISS %: 0.000744112  AVERAGE MISS PENALTY: 34.1497
DTLB PREFETCH  ACCESS:     0  HIT:     0  MISS:     0  HIT %:     0  MISS %:     0  AVERAGE MISS PENALTY: 0
DTLB WRITEBACK ACCESS:     0  HIT:     0  MISS:     0  HIT %:     0  MISS %:     0  AVERAGE MISS PENALTY: 0

STLB TOTAL     ACCESS: 62948  HIT: 21353  MISS: 41595  HIT %: 33.9216  MISS %: 66.0784  AVERAGE MISS PENALTY: 100
STLB LOAD      ACCESS: 62781  HIT: 21228  MISS: 41553  HIT %: 33.8128  MISS %: 66.1872  AVERAGE MISS PENALTY: 100
STLB RFO       ACCESS:   167  HIT:   125  MISS:    42  HIT %: 74.8503  MISS %: 25.1497  AVERAGE MISS PENALTY: 100
STLB PREFETCH  ACCESS:     0  HIT:     0  MISS:     0  HIT %:     0  MISS %:     0  AVERAGE MISS PENALTY: 0
STLB WRITEBACK ACCESS:     0  HIT:     0  MISS:     0  HIT %:     0  MISS %:     0  AVERAGE MISS PENALTY: 0

L1D TOTAL     ACCESS: 109075204  HIT: 105539667  MISS: 3535537  HIT %: 96.7586  MISS %: 3.24138  AVERAGE MISS PENALTY: 539213
L1D LOAD      ACCESS: 39888240  HIT: 39720522  MISS: 167718  HIT %: 99.5795  MISS %: 0.42047  AVERAGE MISS PENALTY: 1.12835e+07
L1D RFO       ACCESS: 22560704  HIT: 22559403  MISS:  1301  HIT %: 99.9942  MISS %: 0.00576666  AVERAGE MISS PENALTY: 1.06588e+07
L1D PREFETCH  ACCESS: 46626260  HIT: 43259742  MISS: 3366518  HIT %: 92.7798  MISS %: 7.22022  AVERAGE MISS PENALTY: 28.7275
L1D WRITEBACK ACCESS:     0  HIT:     0  MISS:     0  HIT %:     0  MISS %:     0  AVERAGE MISS PENALTY: 0

L1I TOTAL     ACCESS: 35340492  HIT: 35340492  MISS:     0  HIT %:   100  MISS %:     0  AVERAGE MISS PENALTY: 0
L1I LOAD      ACCESS: 35340492  HIT: 35340492  MISS:     0  HIT %:   100  MISS %:     0  AVERAGE MISS PENALTY: 0
L1I RFO       ACCESS:     0  HIT:     0  MISS:     0  HIT %:     0  MISS %:     0  AVERAGE MISS PENALTY: 0
L1I PREFETCH  ACCESS:     0  HIT:     0  MISS:     0  HIT %:     0  MISS %:     0  AVERAGE MISS PENALTY: 0
L1I WRITEBACK ACCESS:     0  HIT:     0  MISS:     0  HIT %:     0  MISS %:     0  AVERAGE MISS PENALTY: 0

L2C TOTAL     ACCESS: 9119673  HIT: 7249120  MISS: 1870553  HIT %: 79.4888  MISS %: 20.5112  AVERAGE MISS PENALTY: 680964
L2C LOAD      ACCESS: 167135  HIT: 98746  MISS: 68389  HIT %: 59.0816  MISS %: 40.9184  AVERAGE MISS PENALTY: 1.86216e+07
L2C RFO       ACCESS:  1272  HIT:   759  MISS:   513  HIT %: 59.6698  MISS %: 40.3302  AVERAGE MISS PENALTY: 223.489
L2C PREFETCH  ACCESS: 8909908  HIT: 7108764  MISS: 1801144  HIT %: 79.7849  MISS %: 20.2151  AVERAGE MISS PENALTY: 146.651
L2C WRITEBACK ACCESS: 41358  HIT: 40851  MISS:   507  HIT %: 98.7741  MISS %: 1.22588  AVERAGE MISS PENALTY: 0


LLC0 TOTAL     ACCESS: 235102  HIT: 11953  MISS: 223149  HIT %: 5.08418  MISS %: 94.9158  AVERAGE MISS PENALTY: 120.349
LLC0 LOAD      ACCESS: 29873  HIT:  1237  MISS: 28636  HIT %: 4.14086  MISS %: 95.8591  AVERAGE MISS PENALTY: 124.839
LLC0 RFO       ACCESS:    77  HIT:     0  MISS:    77  HIT %:     0  MISS %:   100  AVERAGE MISS PENALTY: 218.701
LLC0 PREFETCH  ACCESS: 202344  HIT:  9415  MISS: 192929  HIT %: 4.65297  MISS %: 95.347  AVERAGE MISS PENALTY: 120.583
LLC0 WRITEBACK ACCESS:  2808  HIT:  1301  MISS:  1507  HIT %: 46.3319  MISS %: 53.6681  AVERAGE MISS PENALTY: 0

LLC1 TOTAL     ACCESS: 236540  HIT: 12707  MISS: 223833  HIT %: 5.37203  MISS %: 94.628  AVERAGE MISS PENALTY: 120.166
LLC1 LOAD      ACCESS:  5096  HIT:   523  MISS:  4573  HIT %: 10.263  MISS %: 89.737  AVERAGE MISS PENALTY: 173.612
LLC1 RFO       ACCESS:    64  HIT:     8  MISS:    56  HIT %:  12.5  MISS %:  87.5  AVERAGE MISS PENALTY: 187.214
LLC1 PREFETCH  ACCESS: 228670  HIT: 10976  MISS: 217694  HIT %: 4.79993  MISS %: 95.2001  AVERAGE MISS PENALTY: 119.86
LLC1 WRITEBACK ACCESS:  2710  HIT:  1200  MISS:  1510  HIT %: 44.2804  MISS %: 55.7196  AVERAGE MISS PENALTY: 0

LLC2 TOTAL     ACCESS: 235621  HIT: 12092  MISS: 223529  HIT %: 5.13197  MISS %: 94.868  AVERAGE MISS PENALTY: 118.915
LLC2 LOAD      ACCESS:  4719  HIT:   384  MISS:  4335  HIT %: 8.13732  MISS %: 91.8627  AVERAGE MISS PENALTY: 172.88
LLC2 RFO       ACCESS:    73  HIT:    15  MISS:    58  HIT %: 20.5479  MISS %: 79.4521  AVERAGE MISS PENALTY: 212.672
LLC2 PREFETCH  ACCESS: 228165  HIT: 10571  MISS: 217594  HIT %: 4.63305  MISS %: 95.3669  AVERAGE MISS PENALTY: 118.657
LLC2 WRITEBACK ACCESS:  2664  HIT:  1122  MISS:  1542  HIT %: 42.1171  MISS %: 57.8829  AVERAGE MISS PENALTY: 0

LLC3 TOTAL     ACCESS: 236939  HIT: 13136  MISS: 223803  HIT %: 5.54404  MISS %: 94.456  AVERAGE MISS PENALTY: 115.347
LLC3 LOAD      ACCESS:  5782  HIT:  1236  MISS:  4546  HIT %: 21.3767  MISS %: 78.6233  AVERAGE MISS PENALTY: 177.086
LLC3 RFO       ACCESS:    73  HIT:     7  MISS:    66  HIT %: 9.58904  MISS %: 90.411  AVERAGE MISS PENALTY: 184.652
LLC3 PREFETCH  ACCESS: 228376  HIT: 10719  MISS: 217657  HIT %: 4.69358  MISS %: 95.3064  AVERAGE MISS PENALTY: 114.85
[...]
 TIMELY PREFETCHES:       1068 LATE PREFETCHES: 0 DROPPED PREFETCHES: 0
LLC1 AVERAGE MISS LATENCY: 118.483 cycles
LLC2 TOTAL     ACCESS: 244639  HIT: 20977  MISS: 223662  HIT %: 8.57468  MISS %: 91.4253  AVERAGE MISS PENALTY: 117.946
LLC2 LOAD      ACCESS:  4686  HIT:   377  MISS:  4309  HIT %: 8.04524  MISS %: 91.9548  AVERAGE MISS PENALTY: 175.463
LLC2 RFO       ACCESS:    75  HIT:    19  MISS:    56  HIT %: 25.3333  MISS %: 74.6667  AVERAGE MISS PENALTY: 182.821
LLC2 PREFETCH  ACCESS: 237278  HIT: 19431  MISS: 217847  HIT %: 8.18913  MISS %: 91.8109  AVERAGE MISS PENALTY: 117.577
LLC2 WRITEBACK ACCESS:  2600  HIT:  1150  MISS:  1450  HIT %: 44.2308  MISS %: 55.7692  AVERAGE MISS PENALTY: 0
LLC2 PREFETCH  REQUESTED:     0  ISSUED:     0  USEFUL:   999  USELESS: 1741020
 USEFUL LOAD PREFETCHES:        999 PREFETCH ISSUED TO LOWER LEVEL:    1742058  ACCURACY: 0.057346
 TIMELY PREFETCHES:        999 LATE PREFETCHES: 0 DROPPED PREFETCHES: 0
LLC2 AVERAGE MISS LATENCY: 117.946 cycles
LLC3 TOTAL     ACCESS: 244883  HIT: 21068  MISS: 223815  HIT %: 8.60329  MISS %: 91.3967  AVERAGE MISS PENALTY: 114.11
LLC3 LOAD      ACCESS:  4953  HIT:   491  MISS:  4462  HIT %: 9.91318  MISS %: 90.0868  AVERAGE MISS PENALTY: 177.498
LLC3 RFO       ACCESS:    70  HIT:     6  MISS:    64  HIT %: 8.57143  MISS %: 91.4286  AVERAGE MISS PENALTY: 205.5
LLC3 PREFETCH  ACCESS: 237239  HIT: 19425  MISS: 217814  HIT %: 8.18795  MISS %: 91.8121  AVERAGE MISS PENALTY: 113.557
LLC3 WRITEBACK ACCESS:  2621  HIT:  1146  MISS:  1475  HIT %: 43.7238  MISS %: 56.2762  AVERAGE MISS PENALTY: 0
LLC3 PREFETCH  REQUESTED:     0  ISSUED:     0  USEFUL:  1145  USELESS: 1741287
 USEFUL LOAD PREFETCHES:       1145 PREFETCH ISSUED TO LOWER LEVEL:    1742460  ACCURACY: 0.0657117
 TIMELY PREFETCHES:       1145 LATE PREFETCHES: 0 DROPPED PREFETCHES: 0
LLC3 AVERAGE MISS LATENCY: 114.11 cycles
LLC4 TOTAL     ACCESS: 244954  HIT: 21006  MISS: 223948  HIT %: 8.57549  MISS %: 91.4245  AVERAGE MISS PENALTY: 118.581
LLC4 LOAD      ACCESS:  4709  HIT:   451  MISS:  4258  HIT %: 9.5774  MISS %: 90.4226  AVERAGE MISS PENALTY: 177.08
LLC4 RFO       ACCESS:    64  HIT:     7  MISS:    57  HIT %: 10.9375  MISS %: 89.0625  AVERAGE MISS PENALTY: 230.982
LLC4 PREFETCH  ACCESS: 237529  HIT: 19423  MISS: 218106  HIT %: 8.17711  MISS %: 91.8229  AVERAGE MISS PENALTY: 118.24
LLC4 WRITEBACK ACCESS:  2652  HIT:  1125  MISS:  1527  HIT %: 42.4208  MISS %: 57.5792  AVERAGE MISS PENALTY: 0
LLC4 PREFETCH  REQUESTED:     0  ISSUED:     0  USEFUL:  1453  USELESS: 1743187
 USEFUL LOAD PREFETCHES:       1453 PREFETCH ISSUED TO LOWER LEVEL:    1744663  ACCURACY: 0.0832826
 TIMELY PREFETCHES:       1453 LATE PREFETCHES: 0 DROPPED PREFETCHES: 0
LLC4 AVERAGE MISS LATENCY: 118.581 cycles
LLC5 TOTAL     ACCESS: 245042  HIT: 21109  MISS: 223933  HIT %: 8.61444  MISS %: 91.3856  AVERAGE MISS PENALTY: 119.33
LLC5 LOAD      ACCESS:  4486  HIT:   402  MISS:  4084  HIT %: 8.96121  MISS %: 91.0388  AVERAGE MISS PENALTY: 178.991
LLC5 RFO       ACCESS:    57  HIT:     4  MISS:    53  HIT %: 7.01754  MISS %: 92.9825  AVERAGE MISS PENALTY: 206.245
LLC5 PREFETCH  ACCESS: 237845  HIT: 19575  MISS: 218270  HIT %: 8.23015  MISS %: 91.7699  AVERAGE MISS PENALTY: 119.026
LLC5 WRITEBACK ACCESS:  2654  HIT:  1128  MISS:  1526  HIT %: 42.5019  MISS %: 57.4981  AVERAGE MISS PENALTY: 0
LLC5 PREFETCH  REQUESTED:     0  ISSUED:     0  USEFUL:  1057  USELESS: 1745517
 USEFUL LOAD PREFETCHES:       1057 PREFETCH ISSUED TO LOWER LEVEL:    1746677  ACCURACY: 0.0605149
 TIMELY PREFETCHES:       1057 LATE PREFETCHES: 0 DROPPED PREFETCHES: 0
LLC5 AVERAGE MISS LATENCY: 119.33 cycles
LLC6 TOTAL     ACCESS: 244901  HIT: 21214  MISS: 223687  HIT %: 8.66228  MISS %: 91.3377  AVERAGE MISS PENALTY: 113.204
LLC6 LOAD      ACCESS:  4768  HIT:   688  MISS:  4080  HIT %: 14.4295  MISS %: 85.5705  AVERAGE MISS PENALTY: 176.88
LLC6 RFO       ACCESS:    59  HIT:     4  MISS:    55  HIT %: 6.77966  MISS %: 93.2203  AVERAGE MISS PENALTY: 188.364
LLC6 PREFETCH  ACCESS: 237071  HIT: 19036  MISS: 218035  HIT %: 8.02966  MISS %: 91.9703  AVERAGE MISS PENALTY: 112.781
LLC6 WRITEBACK ACCESS:  3003  HIT:  1486  MISS:  1517  HIT %: 49.4838  MISS %: 50.5162  AVERAGE MISS PENALTY: 0
LLC6 PREFETCH  REQUESTED:     0  ISSUED:     0  USEFUL:  1098  USELESS: 1742829
 USEFUL LOAD PREFETCHES:       1098 PREFETCH ISSUED TO LOWER LEVEL:    1743952  ACCURACY: 0.0629604
 TIMELY PREFETCHES:       1098 LATE PREFETCHES: 0 DROPPED PREFETCHES: 0
LLC6 AVERAGE MISS LATENCY: 113.204 cycles
LLC7 TOTAL     ACCESS: 243966  HIT: 20164  MISS: 223802  HIT %: 8.26509  MISS %: 91.7349  AVERAGE MISS PENALTY: 116.144
LLC7 LOAD      ACCESS:  4753  HIT:   393  MISS:  4360  HIT %: 8.26846  MISS %: 91.7315  AVERAGE MISS PENALTY: 178.112
LLC7 RFO       ACCESS:    54  HIT:     5  MISS:    49  HIT %: 9.25926  MISS %: 90.7407  AVERAGE MISS PENALTY: 186.408
LLC7 PREFETCH  ACCESS: 236514  HIT: 18626  MISS: 217888  HIT %: 7.87522  MISS %: 92.1248  AVERAGE MISS PENALTY: 115.69
LLC7 WRITEBACK ACCESS:  2645  HIT:  1140  MISS:  1505  HIT %: 43.1002  MISS %: 56.8998  AVERAGE MISS PENALTY: 0
LLC7 PREFETCH  REQUESTED:     0  ISSUED:     0  USEFUL:  1057  USELESS: 1741557
 USEFUL LOAD PREFETCHES:       1057 PREFETCH ISSUED TO LOWER LEVEL:    1742749  ACCURACY: 0.0606513
 TIMELY PREFETCHES:       1057 LATE PREFETCHES: 0 DROPPED PREFETCHES: 0
LLC7 AVERAGE MISS LATENCY: 116.144 cycles
ROI Average ROB Stall Cycles:	8.60313
ROI Total ROB Stalls Cycles:	458627476
ROI TOTAL ROB counter      :	53309379
ROI Average Load ROB Stall Cycles:	11.384
ROI Total Load ROB Stalls Cycle  :	33036447
ROI Total Load ROB stalls Counter:	2902014
Major fault: 0 Minor fault: 10446

CPU 7 cumulative IPC: 0.397945 instructions: 200000000 cycles: 502582281
ITLB TOTAL     ACCESS: 22828090  HIT: 22828090  MISS:     0  HIT %:   100  MISS %:     0  AVERAGE MISS PENALTY: 0
ITLB LOAD      ACCESS: 22828090  HIT: 22828090  MISS:     0  HIT %:   100  MISS %:     0  AVERAGE MISS PENALTY: 0
ITLB RFO       ACCESS:     0  HIT:     0  MISS:     0  HIT %:     0  MISS %:     0  AVERAGE MISS PENALTY: 0
ITLB PREFETCH  ACCESS:     0  HIT:     0  MISS:     0  HIT %:     0  MISS %:     0  AVERAGE MISS PENALTY: 0
ITLB WRITEBACK ACCESS:     0  HIT:     0  MISS:     0  HIT %:     0  MISS %:     0  AVERAGE MISS PENALTY: 0
ITLB PREFETCH  REQUESTED:     0  ISSUED:     0  USEFUL:     0  USELESS:     0
 USEFUL LOAD PREFETCHES:          0 PREFETCH ISSUED TO LOWER LEVEL:          0  ACCURACY: -nan
 TIMELY PREFETCHES:          0 LATE PREFETCHES: 0 DROPPED PREFETCHES: 0
ITLB AVERAGE MISS LATENCY: -nan cycles
DTLB TOTAL     ACCESS: 63708842  HIT: 63645909  MISS: 62933  HIT %: 99.9012  MISS %: 0.0987822  AVERAGE MISS PENALTY: 75.3799
DTLB LOAD      ACCESS: 41270439  HIT: 41207671  MISS: 62768  HIT %: 99.8479  MISS %: 0.152089  AVERAGE MISS PENALTY: 75.4891
DTLB RFO       ACCESS: 22438403  HIT: 22438238  MISS:   165  HIT %: 99.9993  MISS %: 0.000735346  AVERAGE MISS PENALTY: 33.8485
DTLB PREFETCH  ACCESS:     0  HIT:     0  MISS:     0  HIT %:     0  MISS %:     0  AVERAGE MISS PENALTY: 0
DTLB WRITEBACK ACCESS:     0  HIT:     0  MISS:     0  HIT %:     0  MISS %:     0  AVERAGE MISS PENALTY: 0
DTLB PREFETCH  REQUESTED:     0  ISSUED:     0  USEFUL:     0  USELESS:     0
 USEFUL LOAD PREFETCHES:          0 PREFETCH ISSUED TO LOWER LEVEL:          0  ACCURACY: -nan
 TIMELY PREFETCHES:          0 LATE PREFETCHES: 0 DROPPED PREFETCHES: 0
DTLB AVERAGE MISS LATENCY: 75.3799 cycles
STLB TOTAL     ACCESS: 62933  HIT: 21346  MISS: 41587  HIT %: 33.9186  MISS %: 66.0814  AVERAGE MISS PENALTY: 100
STLB LOAD      ACCESS: 62768  HIT: 21222  MISS: 41546  HIT %: 33.8102  MISS %: 66.1898  AVERAGE MISS PENALTY: 100
STLB RFO       ACCESS:   165  HIT:   124  MISS:    41  HIT %: 75.1515  MISS %: 24.8485  AVERAGE MISS PENALTY: 100
STLB PREFETCH  ACCESS:     0  HIT:     0  MISS:     0  HIT %:     0  MISS %:     0  AVERAGE MISS PENALTY: 0
STLB WRITEBACK ACCESS:     0  HIT:     0  MISS:     0  HIT %:     0  MISS %:     0  AVERAGE MISS PENALTY: 0
STLB PREFETCH  REQUESTED:     0  ISSUED:     0  USEFUL:     0  USELESS:     0
 USEFUL LOAD PREFETCHES:          0 PREFETCH ISSUED TO LOWER LEVEL:          0  ACCURACY: -nan
 TIMELY PREFETCHES:          0 LATE PREFETCHES: 0 DROPPED PREFETCHES: 0
STLB AVERAGE MISS LATENCY: 100 cycles
L1D TOTAL     ACCESS: 109063969  HIT: 105529051  MISS: 3534918  HIT %: 96.7589  MISS %: 3.24114  AVERAGE MISS PENALTY: 521146
L1D LOAD      ACCESS: 39880649  HIT: 39713050  MISS: 167599  HIT %: 99.5797  MISS %: 0.420251  AVERAGE MISS PENALTY: 1.09121e+07
L1D RFO       ACCESS: 22556328  HIT: 22555031  MISS:  1297  HIT %: 99.9942  MISS %: 0.00575005  AVERAGE MISS PENALTY: 1.02136e+07
L1D PREFETCH  ACCESS: 46626992  HIT: 43260970  MISS: 3366022  HIT %: 92.781  MISS %: 7.21904  AVERAGE MISS PENALTY: 28.6765
L1D WRITEBACK ACCESS:     0  HIT:     0  MISS:     0  HIT %:     0  MISS %:     0  AVERAGE MISS PENALTY: 0
L1D PREFETCH  REQUESTED: 48239640  ISSUED: 47983452  USEFUL: 3066784  USELESS: 299251
 USEFUL LOAD PREFETCHES:    3066784 PREFETCH ISSUED TO LOWER LEVEL:    4088750  ACCURACY: 75.0054
 TIMELY PREFETCHES:    3066784 LATE PREFETCHES: 11298 DROPPED PREFETCHES: 256188
L1D AVERAGE MISS LATENCY: 3778.77 cycles
L1I TOTAL     ACCESS: 35333576  HIT: 35333576  MISS:     0  HIT %:   100  MISS %:     0  AVERAGE MISS PENALTY: 0
L1I LOAD      ACCESS: 35333576  HIT: 35333576  MISS:     0  HIT %:   100  MISS %:     0  AVERAGE MISS PENALTY: 0
L1I RFO       ACCESS:     0  HIT:     0  MISS:     0  HIT %:     0  MISS %:     0  AVERAGE MISS PENALTY: 0
L1I PREFETCH  ACCESS:     0  HIT:     0  MISS:     0  HIT %:     0  MISS %:     0  AVERAGE MISS PENALTY: 0
L1I WRITEBACK ACCESS:     0  HIT:     0  MISS:     0  HIT %:     0  MISS %:     0  AVERAGE MISS PENALTY: 0
L1I PREFETCH  REQUESTED:     0  ISSUED:     0  USEFUL:     0  USELESS:     0
 USEFUL LOAD PREFETCHES:          0 PREFETCH ISSUED TO LOWER LEVEL:          0  ACCURACY: -nan
 TIMELY PREFETCHES:          0 LATE PREFETCHES: 0 DROPPED PREFETCHES: 0
L1I AVERAGE MISS LATENCY: -nan cycles
L2C TOTAL     ACCESS: 9132125  HIT: 7309159  MISS: 1822966  HIT %: 80.0379  MISS %: 19.9621  AVERAGE MISS PENALTY: 673525
L2C LOAD      ACCESS: 167009  HIT: 102294  MISS: 64715  HIT %: 61.2506  MISS %: 38.7494  AVERAGE MISS PENALTY: 1.89686e+07
L2C RFO       ACCESS:  1269  HIT:   777  MISS:   492  HIT %: 61.2293  MISS %: 38.7707  AVERAGE MISS PENALTY: 234.132
L2C PREFETCH  ACCESS: 8922489  HIT: 7164749  MISS: 1757740  HIT %: 80.2999  MISS %: 19.7001  AVERAGE MISS PENALTY: 147.967
L2C WRITEBACK ACCESS: 41358  HIT: 41339  MISS:    19  HIT %: 99.9541  MISS %: 0.0459403  AVERAGE MISS PENALTY: 0
L2C PREFETCH  REQUESTED: 6450201  ISSUED: 6449234  USEFUL: 14953  USELESS: 1743351
 USEFUL LOAD PREFETCHES:      14953 PREFETCH ISSUED TO LOWER LEVEL:    1880737  ACCURACY: 0.795061
 TIMELY PREFETCHES:      14953 LATE PREFETCHES: 4436 DROPPED PREFETCHES: 967
L2C AVERAGE MISS LATENCY: 149.05 cycles
LLC0 TOTAL     ACCESS: 229912  HIT:  6922  MISS: 222990  HIT %: 3.01072  MISS %: 96.9893  AVERAGE MISS PENALTY: 118.974
LLC0 LOAD      ACCESS: 29288  HIT:   683  MISS: 28605  HIT %: 2.33201  MISS %: 97.668  AVERAGE MISS PENALTY: 128.072
LLC0 RFO       ACCESS:    79  HIT:     2  MISS:    77  HIT %: 2.53165  MISS %: 97.4684  AVERAGE MISS PENALTY: 207.974
LLC0 PREFETCH  ACCESS: 197924  HIT:  5200  MISS: 192724  HIT %: 2.62727  MISS %: 97.3727  AVERAGE MISS PENALTY: 118.566
LLC0 WRITEBACK ACCESS:  2621  HIT:  1037  MISS:  1584  HIT %: 39.5651  MISS %: 60.4349  AVERAGE MISS PENALTY: 0
LLC0 PREFETCH  REQUESTED:     0  ISSUED:     0  USEFUL:   994  USELESS: 1543225
 USEFUL LOAD PREFETCHES:        994 PREFETCH ISSUED TO LOWER LEVEL:    1544081  ACCURACY: 0.0643749
 TIMELY PREFETCHES:        994 LATE PREFETCHES: 0 DROPPED PREFETCHES: 0
LLC0 AVERAGE MISS LATENCY: 118.974 cycles
Deadblocks : 227595 Deadblock percentage : 795.648

LLC1 TOTAL     ACCESS: 230868  HIT:  7240  MISS: 223628  HIT %: 3.13599  MISS %: 96.864  AVERAGE MISS PENALTY: 118.439
LLC1 LOAD      ACCESS:  4829  HIT:   298  MISS:  4531  HIT %: 6.17105  MISS %: 93.829  AVERAGE MISS PENALTY: 176.266
LLC1 RFO       ACCESS:    60  HIT:     5  MISS:    55  HIT %: 8.33333  MISS %: 91.6667  AVERAGE MISS PENALTY: 208.473
LLC1 PREFETCH  ACCESS: 223324  HIT:  5819  MISS: 217505  HIT %: 2.60563  MISS %: 97.3944  AVERAGE MISS PENALTY: 118.048
LLC1 WRITEBACK ACCESS:  2655  HIT:  1118  MISS:  1537  HIT %: 42.1092  MISS %: 57.8908  AVERAGE MISS PENALTY: 0
LLC1 PREFETCH  REQUESTED:     0  ISSUED:     0  USEFUL:  1068  USELESS: 1741196
 USEFUL LOAD PREFETCHES:       1068 PREFETCH ISSUED TO LOWER LEVEL:    1742309  ACCURACY: 0.061298
 TIMELY PREFETCHES:       1068 LATE PREFETCHES: 0 DROPPED PREFETCHES: 0
LLC1 AVERAGE MISS LATENCY: 118.439 cycles
LLC2 TOTAL     ACCESS: 230278  HIT:  6804  MISS: 223474  HIT %: 2.95469  MISS %: 97.0453  AVERAGE MISS PENALTY: 118.067
LLC2 LOAD      ACCESS:  4688  HIT:   358  MISS:  4330  HIT %: 7.63652  MISS %: 92.3635  AVERAGE MISS PENALTY: 174.833
LLC2 RFO       ACCESS:    63  HIT:     6  MISS:    57  HIT %: 9.52381  MISS %: 90.4762  AVERAGE MISS PENALTY: 195.772
LLC2 PREFETCH  ACCESS: 222879  HIT:  5285  MISS: 217594  HIT %: 2.37124  MISS %: 97.6288  AVERAGE MISS PENALTY: 117.727
LLC2 WRITEBACK ACCESS:  2648  HIT:  1155  MISS:  1493  HIT %: 43.6178  MISS %: 56.3822  AVERAGE MISS PENALTY: 0
LLC2 PREFETCH  REQUESTED:     0  ISSUED:     0  USEFUL:   999  USELESS: 1741020
 USEFUL LOAD PREFETCHES:        999 PREFETCH ISSUED TO LOWER LEVEL:    1742058  ACCURACY: 0.057346
 TIMELY PREFETCHES:        999 LATE PREFETCHES: 0 DROPPED PREFETCHES: 0
LLC2 AVERAGE MISS LATENCY: 118.067 cycles
LLC3 TOTAL     ACCESS: 230676  HIT:  6902  MISS: 223774  HIT %: 2.99208  MISS %: 97.0079  AVERAGE MISS PENALTY: 114.12
LLC3 LOAD      ACCESS:  4961  HIT:   464  MISS:  4497  HIT %: 9.35295  MISS %: 90.647  AVERAGE MISS PENALTY: 178.55
LLC3 RFO       ACCESS:    68  HIT:     3  MISS:    65  HIT %: 4.41176  MISS %: 95.5882  AVERAGE MISS PENALTY: 212.092
LLC3 PREFETCH  ACCESS: 222949  HIT:  5269  MISS: 217680  HIT %: 2.36332  MISS %: 97.6367  AVERAGE MISS PENALTY: 113.563
LLC3 WRITEBACK ACCESS:  2698  HIT:  1166  MISS:  1532  HIT %: 43.2172  MISS %: 56.7828  AVERAGE MISS PENALTY: 0
LLC3 PREFETCH  REQUESTED:     0  ISSUED:     0  USEFUL:  1145  USELESS: 1741287
 USEFUL LOAD PREFETCHES:       1145 PREFETCH ISSUED TO LOWER LEVEL:    1742460  ACCURACY: 0.0657117
 TIMELY PREFETCHES:       1145 LATE PREFETCHES: 0 DROPPED PREFETCHES: 0
LLC3 AVERAGE MISS LATENCY: 114.12 cycles
LLC4 TOTAL     ACCESS: 230759  HIT:  6899  MISS: 223860  HIT %: 2.9897  MISS %: 97.0103  AVERAGE MISS PENALTY: 118.622
LLC4 LOAD      ACCESS:  4689  HIT:   403  MISS:  4286  HIT %: 8.59458  MISS %: 91.4054  AVERAGE MISS PENALTY: 179.225
LLC4 RFO       ACCESS:    63  HIT:     3  MISS:    60  HIT %: 4.7619  MISS %: 95.2381  AVERAGE MISS PENALTY: 222.283
LLC4 PREFETCH  ACCESS: 223271  HIT:  5277  MISS: 217994  HIT %: 2.3635  MISS %: 97.6365  AVERAGE MISS PENALTY: 118.229
LLC4 WRITEBACK ACCESS:  2736  HIT:  1216  MISS:  1520  HIT %: 44.4444  MISS %: 55.5556  AVERAGE MISS PENALTY: 0
LLC4 PREFETCH  REQUESTED:     0  ISSUED:     0  USEFUL:  1453  USELESS: 1743187
 USEFUL LOAD PREFETCHES:       1453 PREFETCH ISSUED TO LOWER LEVEL:    1744663  ACCURACY: 0.0832826
 TIMELY PREFETCHES:       1453 LATE PREFETCHES: 0 DROPPED PREFETCHES: 0
LLC4 AVERAGE MISS LATENCY: 118.622 cycles
LLC5 TOTAL     ACCESS: 230887  HIT:  7027  MISS: 223860  HIT %: 3.04348  MISS %: 96.9565  AVERAGE MISS PENALTY: 119.357
LLC5 LOAD      ACCESS:  4391  HIT:   310  MISS:  4081  HIT %: 7.0599  MISS %: 92.9401  AVERAGE MISS PENALTY: 180.556
LLC5 RFO       ACCESS:    54  HIT:     2  MISS:    52  HIT %: 3.7037  MISS %: 96.2963  AVERAGE MISS PENALTY: 212.538
LLC5 PREFETCH  ACCESS: 223720  HIT:  5535  MISS: 218185  HIT %: 2.47407  MISS %: 97.5259  AVERAGE MISS PENALTY: 119.034
LLC5 WRITEBACK ACCESS:  2722  HIT:  1180  MISS:  1542  HIT %: 43.3505  MISS %: 56.6495  AVERAGE MISS PENALTY: 0
LLC5 PREFETCH  REQUESTED:     0  ISSUED:     0  USEFUL:  1057  USELESS: 1745517
 USEFUL LOAD PREFETCHES:       1057 PREFETCH ISSUED TO LOWER LEVEL:    1746677  ACCURACY: 0.0605149
 TIMELY PREFETCHES:       1057 LATE PREFETCHES: 0 DROPPED PREFETCHES: 0
LLC5 AVERAGE MISS LATENCY: 119.357 cycles
LLC6 TOTAL     ACCESS: 230427  HIT:  6855  MISS: 223572  HIT %: 2.97491  MISS %: 97.0251  AVERAGE MISS PENALTY: 113.304
LLC6 LOAD      ACCESS:  4402  HIT:   316  MISS:  4086  HIT %: 7.17856  MISS %: 92.8214  AVERAGE MISS PENALTY: 177.515
LLC6 RFO       ACCESS:    56  HIT:     1  MISS:    55  HIT %: 1.78571  MISS %: 98.2143  AVERAGE MISS PENALTY: 200.527
LLC6 PREFETCH  ACCESS: 223212  HIT:  5364  MISS: 217848  HIT %: 2.4031  MISS %: 97.5969  AVERAGE MISS PENALTY: 112.901
LLC6 WRITEBACK ACCESS:  2757  HIT:  1174  MISS:  1583  HIT %: 42.5825  MISS %: 57.4175  AVERAGE MISS PENALTY: 0
LLC6 PREFETCH  REQUESTED:     0  ISSUED:     0  USEFUL:  1098  USELESS: 1742829
 USEFUL LOAD PREFETCHES:       1098 PREFETCH ISSUED TO LOWER LEVEL:    1743952  ACCURACY: 0.0629604
 TIMELY PREFETCHES:       1098 LATE PREFETCHES: 0 DROPPED PREFETCHES: 0
LLC6 AVERAGE MISS LATENCY: 113.304 cycles
LLC7 TOTAL     ACCESS: 230689  HIT:  7088  MISS: 223601  HIT %: 3.07253  MISS %: 96.9275  AVERAGE MISS PENALTY: 116.022
LLC7 LOAD      ACCESS:  4724  HIT:   369  MISS:  4355  HIT %: 7.81118  MISS %: 92.1888  AVERAGE MISS PENALTY: 178.642
LLC7 RFO       ACCESS:    49  HIT:     0  MISS:    49  HIT %:     0  MISS %:   100  AVERAGE MISS PENALTY: 176.163
LLC7 PREFETCH  ACCESS: 223202  HIT:  5545  MISS: 217657  HIT %: 2.4843  MISS %: 97.5157  AVERAGE MISS PENALTY: 115.576
LLC7 WRITEBACK ACCESS:  2714  HIT:  1174  MISS:  1540  HIT %: 43.2572  MISS %: 56.7428  AVERAGE MISS PENALTY: 0
LLC7 PREFETCH  REQUESTED:     0  ISSUED:     0  USEFUL:  1057  USELESS: 1741557
 USEFUL LOAD PREFETCHES:       1057 PREFETCH ISSUED TO LOWER LEVEL:    1742749  ACCURACY: 0.0606513
 TIMELY PREFETCHES:       1057 LATE PREFETCHES: 0 DROPPED PREFETCHES: 0
LLC7 AVERAGE MISS LATENCY: 116.022 cycles
ROI Average ROB Stall Cycles:	8.60354
ROI Total ROB Stalls Cycles:	458638192
ROI TOTAL ROB counter      :	53308078
ROI Average Load ROB Stall Cycles:	11.398
ROI Total Load ROB Stalls Cycle  :	33066089
ROI Total Load ROB stalls Counter:	2901037
Major fault: 0 Minor fault: 10446








Interconnect Stats 
LINK 0 BW : 0LINK 1 BW : 0LINK 2 BW : 0LINK 3 BW : 0LINK 4 BW : 0LINK 5 BW : 0LINK 6 BW : 0LINK 7 BW : 0
DRAM Statistics
 CHANNEL 0
 RQ ROW_BUFFER_HIT: 5614402  ROW_BUFFER_MISS: 1493404
 DBUS_CONGESTED: 1298393
 WQ ROW_BUFFER_HIT: 35534  ROW_BUFFER_MISS: 49961  FULL:     0

 CHANNEL 1
 RQ ROW_BUFFER_HIT: 5613695  ROW_BUFFER_MISS: 1502405
 DBUS_CONGESTED: 1298393
 WQ ROW_BUFFER_HIT: 35110  ROW_BUFFER_MISS: 50563  FULL:     0

 AVG_CONGESTED_CYCLE: 4
DRAM PAGES: 2097152
Allocated PAGES: 83568
L2C destructor called
L1D destructor called
L1I destructor called
STLB destructor called
DTLB destructor called
ITLB destructor called
L2C destructor called
L1D destructor called
L1I destructor called
STLB destructor called
DTLB destructor called
ITLB destructor called
L2C destructor called
L1D destructor called
L1I destructor called
STLB destructor called
DTLB destructor called
ITLB destructor called
L2C destructor called
L1D destructor called
L1I destructor called
STLB destructor called
DTLB destructor called
ITLB destructor called
L2C destructor called
L1D destructor called
L1I destructor called
STLB destructor called
DTLB destructor called
ITLB destructor called
L2C destructor called
L1D destructor called
L1I destructor called
STLB destructor called
DTLB destructor called
ITLB destructor called
L2C destructor called
L1D destructor called
L1I destructor called
STLB destructor called
DTLB destructor called
ITLB destructor called
L2C destructor called
L1D destructor called
L1I destructor called
STLB destructor called
DTLB destructor called
ITLB destructor called
