
*** ChampSim Multicore Out-of-Order Simulator ***

Warmup Instructions: 200000000
Simulation Instructions: 200000000
Number of CPUs: 8
threads:1

L1I Configuration:
L1I_SET:64
L1I_WAY:8
L1I_RQ_SIZE:64
L1I_WQ_SIZE:64
L1I_PQ_SIZE:8
L1I_MSHR_SIZE:8

L1D Configuration:
L1D_SET:64
L1D_WAY:12
L1D_RQ_SIZE:64
L1D_WQ_SIZE:64
L1D_PQ_SIZE:8
L1D_MSHR_SIZE:16

L2C Configuration:
L2C_SET:1024
L2C_WAY:8
L2C_RQ_SIZE:32
L2C_WQ_SIZE:32
L2C_PQ_SIZE:16
L2C_MSHR_SIZE:32

LLC Configuration:
LLC_SET:2048
LLC_WAY:16
LLC SLICES:8
LLC_RQ_SIZE:64
LLC_WQ_SIZE:64
LLC_PQ_SIZE:32
LLC_MSHR_SIZE:64

Interconnect OFF
Attacker deprioritize is: OFF
Off-chip DRAM Size: 8192 MB Channels: 2 Width: 64-bit Data Rate: 3200 MT/s
PAGE SIZE in KB: 4.000000 
PAGE SIZE in MB: 0.003906 
PAGE offset in bits: 12 
CEASER-S_LLC:0
MIRAGE : 0
CEASER_LATENCY:3
REMAP : OFF
Partitions : 1
Multi-Step : OFF
BFS : OFF

CPU 0 runs /home/anubhav/spec_2017/603.bwaves_s-2931B.champsimtrace.xz
CPU 1 runs /home/anubhav/spec_2017/603.bwaves_s-2931B.champsimtrace.xz
CPU 2 runs /home/anubhav/spec_2017/603.bwaves_s-2931B.champsimtrace.xz
CPU 3 runs /home/anubhav/spec_2017/603.bwaves_s-2931B.champsimtrace.xz
CPU 4 runs /home/anubhav/spec_2017/603.bwaves_s-2931B.champsimtrace.xz
CPU 5 runs /home/anubhav/spec_2017/603.bwaves_s-2931B.champsimtrace.xz
CPU 6 runs /home/anubhav/spec_2017/603.bwaves_s-2931B.champsimtrace.xz
CPU 7 runs /home/anubhav/spec_2017/603.bwaves_s-2931B.champsimtrace.xz
CPU 0 Bimodal branch predictor
Initialize Hawkeye state
Initialize Hawkeye state
Initialize Hawkeye state
Initialize Hawkeye state
Initialize Hawkeye state
Initialize Hawkeye state
Initialize Hawkeye state
Initialize Hawkeye state
CPU 1 Bimodal branch predictor
Initialize Hawkeye state
Initialize Hawkeye state
Initialize Hawkeye state
Initialize Hawkeye state
Initialize Hawkeye state
Initialize Hawkeye state
Initialize Hawkeye state
Initialize Hawkeye state
CPU 2 Bimodal branch predictor
Initialize Hawkeye state
Initialize Hawkeye state
Initialize Hawkeye state
Initialize Hawkeye state
Initialize Hawkeye state
Initialize Hawkeye state
Initialize Hawkeye state
Initialize Hawkeye state
CPU 3 Bimodal branch predictor
Initialize Hawkeye state
Initialize Hawkeye state
Initialize Hawkeye state
Initialize Hawkeye state
Initialize Hawkeye state
Initialize Hawkeye state
Initialize Hawkeye state
Initialize Hawkeye state
CPU 4 Bimodal branch predictor
Initialize Hawkeye state
Initialize Hawkeye state
Initialize Hawkeye state
Initialize Hawkeye state
Initialize Hawkeye state
Initialize Hawkeye state
Initialize Hawkeye state
Initialize Hawkeye state
CPU 5 Bimodal branch predictor
Initialize Hawkeye state
Initialize Hawkeye state
Initialize Hawkeye state
Initialize Hawkeye state
Initialize Hawkeye state
Initialize Hawkeye state
Initialize Hawkeye state
Initialize Hawkeye state
CPU 6 Bimodal branch predictor
Initialize Hawkeye state
Initialize Hawkeye state
Initialize Hawkeye state
Initialize Hawkeye state
Initialize Hawkeye state
Initialize Hawkeye state
Initialize Hawkeye state
Initialize Hawkeye state
CPU 7 Bimodal branch predictor
Initialize Hawkeye state
Initialize Hawkeye state
Initialize Hawkeye state
Initialize Hawkeye state
Initialize Hawkeye state
Initialize Hawkeye state
Initialize Hawkeye state
Initialize Hawkeye state
Heartbeat CPU 4 instructions: 10000003 cycles: 4140964 heartbeat IPC: 2.4149 cumulative IPC: 2.4149 (Simulation time: 4 hr 7 min 5 sec) 
 Total Blocks : 262144 Invalid Blocks : 15756
Heartbeat CPU 3 instructions: 10000003 cycles: 4141014 heartbeat IPC: 2.41487 cumulative IPC: 2.41487 (Simulation time: 4 hr 7 min 9 sec) 
 Total Blocks : 262144 Invalid Blocks : 15756
Heartbeat CPU 5 instructions: 10000003 cycles: 4141042 heartbeat IPC: 2.41485 cumulative IPC: 2.41485 (Simulation time: 4 hr 7 min 9 sec) 
 Total Blocks : 262144 Invalid Blocks : 15756
Heartbeat CPU 7 instructions: 10000003 cycles: 4141060 heartbeat IPC: 2.41484 cumulative IPC: 2.41484 (Simulation time: 4 hr 7 min 9 sec) 
 Total Blocks : 262144 Invalid Blocks : 15756
Heartbeat CPU 0 instructions: 10000003 cycles: 4141116 heartbeat IPC: 2.41481 cumulative IPC: 2.41481 (Simulation time: 4 hr 7 min 9 sec) 
 Total Blocks : 262144 Invalid Blocks : 15754
Heartbeat CPU 1 instructions: 10000003 cycles: 4141127 heartbeat IPC: 2.4148 cumulative IPC: 2.4148 (Simulation time: 4 hr 7 min 9 sec) 
 Total Blocks : 262144 Invalid Blocks : 15754
Heartbeat CPU 2 instructions: 10000003 cycles: 4141168 heartbeat IPC: 2.41478 cumulative IPC: 2.41478 (Simulation time: 4 hr 7 min 9 sec) 
 Total Blocks : 262144 Invalid Blocks : 15754
Heartbeat CPU 6 instructions: 10000003 cycles: 4141185 heartbeat IPC: 2.41477 cumulative IPC: 2.41477 (Simulation time: 4 hr 7 min 9 sec) 
 Total Blocks : 262144 Invalid Blocks : 15754
Heartbeat CPU 4 instructions: 20000002 cycles: 8281516 heartbeat IPC: 2.41514 cumulative IPC: 2.41502 (Simulation time: 8 hr 9 min 53 sec) 
 Total Blocks : 262144 Invalid Blocks : 2752
Heartbeat CPU 3 instructions: 20000002 cycles: 8281577 heartbeat IPC: 2.41513 cumulative IPC: 2.415 (Simulation time: 8 hr 9 min 59 sec) 
 Total Blocks : 262144 Invalid Blocks : 2752
Heartbeat CPU 5 instructions: 20000002 cycles: 8281626 heartbeat IPC: 2.41512 cumulative IPC: 2.41498 (Simulation time: 8 hr 10 min 0 sec) 
 Total Blocks : 262144 Invalid Blocks : 2752
Heartbeat CPU 7 instructions: 20000002 cycles: 8281652 heartbeat IPC: 2.41511 cumulative IPC: 2.41498 (Simulation time: 8 hr 10 min 0 sec) 
 Total Blocks : 262144 Invalid Blocks : 2752
Heartbeat CPU 0 instructions: 20000002 cycles: 8281705 heartbeat IPC: 2.41512 cumulative IPC: 2.41496 (Simulation time: 8 hr 10 min 0 sec) 
 Total Blocks : 262144 Invalid Blocks : 2751
Heartbeat CPU 1 instructions: 20000002 cycles: 8281718 heartbeat IPC: 2.41511 cumulative IPC: 2.41496 (Simulation time: 8 hr 10 min 1 sec) 
 Total Blocks : 262144 Invalid Blocks : 2751
Heartbeat CPU 2 instructions: 20000002 cycles: 8281785 heartbeat IPC: 2.4151 cumulative IPC: 2.41494 (Simulation time: 8 hr 10 min 1 sec) 
 Total Blocks : 262144 Invalid Blocks : 2751
Heartbeat CPU 6 instructions: 20000002 cycles: 8281808 heartbeat IPC: 2.4151 cumulative IPC: 2.41493 (Simulation time: 8 hr 10 min 1 sec) 
 Total Blocks : 262144 Invalid Blocks : 2751
Heartbeat CPU 4 instructions: 30000001 cycles: 12422006 heartbeat IPC: 2.41517 cumulative IPC: 2.41507 (Simulation time: 12 hr 5 min 2 sec) 
 Total Blocks : 262144 Invalid Blocks : 465
Heartbeat CPU 3 instructions: 30000001 cycles: 12422086 heartbeat IPC: 2.41516 cumulative IPC: 2.41505 (Simulation time: 12 hr 5 min 7 sec) 
 Total Blocks : 262144 Invalid Blocks : 465
Heartbeat CPU 5 instructions: 30000001 cycles: 12422128 heartbeat IPC: 2.41517 cumulative IPC: 2.41505 (Simulation time: 12 hr 5 min 7 sec) 
 Total Blocks : 262144 Invalid Blocks : 465
Heartbeat CPU 7 instructions: 30000001 cycles: 12422199 heartbeat IPC: 2.41514 cumulative IPC: 2.41503 (Simulation time: 12 hr 5 min 7 sec) 
 Total Blocks : 262144 Invalid Blocks : 465
Heartbeat CPU 0 instructions: 30000001 cycles: 12422200 heartbeat IPC: 2.41517 cumulative IPC: 2.41503 (Simulation time: 12 hr 5 min 7 sec) 
 Total Blocks : 262144 Invalid Blocks : 465
Heartbeat CPU 1 instructions: 30000001 cycles: 12422250 heartbeat IPC: 2.41515 cumulative IPC: 2.41502 (Simulation time: 12 hr 5 min 7 sec) 
 Total Blocks : 262144 Invalid Blocks : 465
Heartbeat CPU 2 instructions: 30000001 cycles: 12422297 heartbeat IPC: 2.41516 cumulative IPC: 2.41501 (Simulation time: 12 hr 5 min 7 sec) 
 Total Blocks : 262144 Invalid Blocks : 465
Heartbeat CPU 6 instructions: 30000001 cycles: 12422316 heartbeat IPC: 2.41516 cumulative IPC: 2.41501 (Simulation time: 12 hr 5 min 7 sec) 
 Total Blocks : 262144 Invalid Blocks : 465
Heartbeat CPU 4 instructions: 40000002 cycles: 16562516 heartbeat IPC: 2.41516 cumulative IPC: 2.41509 (Simulation time: 15 hr 25 min 27 sec) 
 Total Blocks : 262144 Invalid Blocks : 95
Heartbeat CPU 3 instructions: 40000002 cycles: 16562607 heartbeat IPC: 2.41516 cumulative IPC: 2.41508 (Simulation time: 15 hr 25 min 31 sec) 
 Total Blocks : 262144 Invalid Blocks : 95
Heartbeat CPU 5 instructions: 40000002 cycles: 16562656 heartbeat IPC: 2.41515 cumulative IPC: 2.41507 (Simulation time: 15 hr 25 min 32 sec) 
 Total Blocks : 262144 Invalid Blocks : 95
Heartbeat CPU 7 instructions: 40000002 cycles: 16562704 heartbeat IPC: 2.41516 cumulative IPC: 2.41506 (Simulation time: 15 hr 25 min 32 sec) 
 Total Blocks : 262144 Invalid Blocks : 95
Heartbeat CPU 0 instructions: 40000002 cycles: 16562733 heartbeat IPC: 2.41515 cumulative IPC: 2.41506 (Simulation time: 15 hr 25 min 32 sec) 
 Total Blocks : 262144 Invalid Blocks : 95
Heartbeat CPU 6 instructions: 40000002 cycles: 16562774 heartbeat IPC: 2.41519 cumulative IPC: 2.41505 (Simulation time: 15 hr 25 min 32 sec) 
 Total Blocks : 262144 Invalid Blocks : 95
Heartbeat CPU 1 instructions: 40000002 cycles: 16562794 heartbeat IPC: 2.41514 cumulative IPC: 2.41505 (Simulation time: 15 hr 25 min 32 sec) 
 Total Blocks : 262144 Invalid Blocks : 95
Heartbeat CPU 2 instructions: 40000002 cycles: 16562843 heartbeat IPC: 2.41514 cumulative IPC: 2.41504 (Simulation time: 15 hr 25 min 32 sec) 
 Total Blocks : 262144 Invalid Blocks : 95
Heartbeat CPU 4 instructions: 50000001 cycles: 20702886 heartbeat IPC: 2.41524 cumulative IPC: 2.41512 (Simulation time: 18 hr 31 min 25 sec) 
 Total Blocks : 262144 Invalid Blocks : 25
Heartbeat CPU 3 instructions: 50000001 cycles: 20703000 heartbeat IPC: 2.41523 cumulative IPC: 2.41511 (Simulation time: 18 hr 31 min 27 sec) 
 Total Blocks : 262144 Invalid Blocks : 25
Heartbeat CPU 5 instructions: 50000001 cycles: 20703043 heartbeat IPC: 2.41523 cumulative IPC: 2.4151 (Simulation time: 18 hr 31 min 28 sec) 
 Total Blocks : 262144 Invalid Blocks : 25
Heartbeat CPU 7 instructions: 50000001 cycles: 20703061 heartbeat IPC: 2.41525 cumulative IPC: 2.4151 (Simulation time: 18 hr 31 min 28 sec) 
 Total Blocks : 262144 Invalid Blocks : 25
Heartbeat CPU 0 instructions: 50000001 cycles: 20703117 heartbeat IPC: 2.41523 cumulative IPC: 2.4151 (Simulation time: 18 hr 31 min 28 sec) 
 Total Blocks : 262144 Invalid Blocks : 25
Heartbeat CPU 6 instructions: 50000001 cycles: 20703131 heartbeat IPC: 2.41525 cumulative IPC: 2.41509 (Simulation time: 18 hr 31 min 28 sec) 
 Total Blocks : 262144 Invalid Blocks : 25
Heartbeat CPU 1 instructions: 50000001 cycles: 20703177 heartbeat IPC: 2.41524 cumulative IPC: 2.41509 (Simulation time: 18 hr 31 min 28 sec) 
 Total Blocks : 262144 Invalid Blocks : 25
Heartbeat CPU 2 instructions: 50000001 cycles: 20703221 heartbeat IPC: 2.41524 cumulative IPC: 2.41508 (Simulation time: 18 hr 31 min 28 sec) 
 Total Blocks : 262144 Invalid Blocks : 25
Heartbeat CPU 4 instructions: 60000002 cycles: 24843435 heartbeat IPC: 2.41514 cumulative IPC: 2.41513 (Simulation time: 21 hr 26 min 50 sec) 
 Total Blocks : 262144 Invalid Blocks : 2
Heartbeat CPU 3 instructions: 60000002 cycles: 24843565 heartbeat IPC: 2.41513 cumulative IPC: 2.41511 (Simulation time: 21 hr 26 min 53 sec) 
 Total Blocks : 262144 Invalid Blocks : 2
Heartbeat CPU 5 instructions: 60000002 cycles: 24843594 heartbeat IPC: 2.41514 cumulative IPC: 2.41511 (Simulation time: 21 hr 26 min 53 sec) 
 Total Blocks : 262144 Invalid Blocks : 2
Heartbeat CPU 7 instructions: 60000002 cycles: 24843595 heartbeat IPC: 2.41515 cumulative IPC: 2.41511 (Simulation time: 21 hr 26 min 53 sec) 
 Total Blocks : 262144 Invalid Blocks : 2
Heartbeat CPU 0 instructions: 60000002 cycles: 24843653 heartbeat IPC: 2.41515 cumulative IPC: 2.4151 (Simulation time: 21 hr 26 min 53 sec) 
 Total Blocks : 262144 Invalid Blocks : 2
Heartbeat CPU 1 instructions: 60000002 cycles: 24843706 heartbeat IPC: 2.41515 cumulative IPC: 2.4151 (Simulation time: 21 hr 26 min 53 sec) 
 Total Blocks : 262144 Invalid Blocks : 2
Heartbeat CPU 6 instructions: 60000002 cycles: 24843714 heartbeat IPC: 2.41512 cumulative IPC: 2.4151 (Simulation time: 21 hr 26 min 53 sec) 
 Total Blocks : 262144 Invalid Blocks : 2
Heartbeat CPU 2 instructions: 60000002 cycles: 24843750 heartbeat IPC: 2.41515 cumulative IPC: 2.41509 (Simulation time: 21 hr 26 min 53 sec) 
 Total Blocks : 262144 Invalid Blocks : 2
Heartbeat CPU 4 instructions: 70000001 cycles: 28983653 heartbeat IPC: 2.41533 cumulative IPC: 2.41515 (Simulation time: 24 hr 20 min 3 sec) 
 Total Blocks : 262144 Invalid Blocks : 0
Heartbeat CPU 3 instructions: 70000001 cycles: 28983784 heartbeat IPC: 2.41533 cumulative IPC: 2.41514 (Simulation time: 24 hr 20 min 5 sec) 
 Total Blocks : 262144 Invalid Blocks : 0
Heartbeat CPU 5 instructions: 70000001 cycles: 28983837 heartbeat IPC: 2.41532 cumulative IPC: 2.41514 (Simulation time: 24 hr 20 min 5 sec) 
 Total Blocks : 262144 Invalid Blocks : 0
Heartbeat CPU 7 instructions: 70000001 cycles: 28983871 heartbeat IPC: 2.4153 cumulative IPC: 2.41514 (Simulation time: 24 hr 20 min 6 sec) 
 Total Blocks : 262144 Invalid Blocks : 0
Heartbeat CPU 0 instructions: 70000001 cycles: 28983892 heartbeat IPC: 2.41532 cumulative IPC: 2.41513 (Simulation time: 24 hr 20 min 6 sec) 
 Total Blocks : 262144 Invalid Blocks : 0
Heartbeat CPU 1 instructions: 70000001 cycles: 28983947 heartbeat IPC: 2.41532 cumulative IPC: 2.41513 (Simulation time: 24 hr 20 min 6 sec) 
 Total Blocks : 262144 Invalid Blocks : 0
Heartbeat CPU 2 instructions: 70000001 cycles: 28983966 heartbeat IPC: 2.41533 cumulative IPC: 2.41513 (Simulation time: 24 hr 20 min 6 sec) 
 Total Blocks : 262144 Invalid Blocks : 0
Heartbeat CPU 6 instructions: 70000001 cycles: 28983993 heartbeat IPC: 2.4153 cumulative IPC: 2.41513 (Simulation time: 24 hr 20 min 6 sec) 
 Total Blocks : 262144 Invalid Blocks : 0
Heartbeat CPU 4 instructions: 80000002 cycles: 33124028 heartbeat IPC: 2.41524 cumulative IPC: 2.41517 (Simulation time: 27 hr 15 min 0 sec) 
 Total Blocks : 262144 Invalid Blocks : 0
Heartbeat CPU 3 instructions: 80000002 cycles: 33124168 heartbeat IPC: 2.41524 cumulative IPC: 2.41516 (Simulation time: 27 hr 15 min 1 sec) 
 Total Blocks : 262144 Invalid Blocks : 0
Heartbeat CPU 5 instructions: 80000002 cycles: 33124232 heartbeat IPC: 2.41523 cumulative IPC: 2.41515 (Simulation time: 27 hr 15 min 1 sec) 
 Total Blocks : 262144 Invalid Blocks : 0
Heartbeat CPU 0 instructions: 80000002 cycles: 33124293 heartbeat IPC: 2.41523 cumulative IPC: 2.41515 (Simulation time: 27 hr 15 min 2 sec) 
 Total Blocks : 262144 Invalid Blocks : 0
Heartbeat CPU 7 instructions: 80000002 cycles: 33124309 heartbeat IPC: 2.4152 cumulative IPC: 2.41514 (Simulation time: 27 hr 15 min 2 sec) 
 Total Blocks : 262144 Invalid Blocks : 0
Heartbeat CPU 1 instructions: 80000002 cycles: 33124363 heartbeat IPC: 2.41522 cumulative IPC: 2.41514 (Simulation time: 27 hr 15 min 2 sec) 
 Total Blocks : 262144 Invalid Blocks : 0
Heartbeat CPU 2 instructions: 80000002 cycles: 33124379 heartbeat IPC: 2.41522 cumulative IPC: 2.41514 (Simulation time: 27 hr 15 min 2 sec) 
 Total Blocks : 262144 Invalid Blocks : 0
Heartbeat CPU 6 instructions: 80000002 cycles: 33124432 heartbeat IPC: 2.4152 cumulative IPC: 2.41514 (Simulation time: 27 hr 15 min 2 sec) 
 Total Blocks : 262144 Invalid Blocks : 0
Heartbeat CPU 4 instructions: 90000002 cycles: 37264672 heartbeat IPC: 2.41508 cumulative IPC: 2.41516 (Simulation time: 30 hr 9 min 0 sec) 
 Total Blocks : 262144 Invalid Blocks : 0
Heartbeat CPU 3 instructions: 90000002 cycles: 37264815 heartbeat IPC: 2.41508 cumulative IPC: 2.41515 (Simulation time: 30 hr 9 min 2 sec) 
 Total Blocks : 262144 Invalid Blocks : 0
Heartbeat CPU 5 instructions: 90000002 cycles: 37264887 heartbeat IPC: 2.41508 cumulative IPC: 2.41514 (Simulation time: 30 hr 9 min 2 sec) 
 Total Blocks : 262144 Invalid Blocks : 0
Heartbeat CPU 0 instructions: 90000002 cycles: 37264975 heartbeat IPC: 2.41506 cumulative IPC: 2.41514 (Simulation time: 30 hr 9 min 2 sec) 
 Total Blocks : 262144 Invalid Blocks : 0
Heartbeat CPU 7 instructions: 90000002 cycles: 37264979 heartbeat IPC: 2.41507 cumulative IPC: 2.41514 (Simulation time: 30 hr 9 min 2 sec) 
 Total Blocks : 262144 Invalid Blocks : 0
Heartbeat CPU 1 instructions: 90000002 cycles: 37265030 heartbeat IPC: 2.41507 cumulative IPC: 2.41513 (Simulation time: 30 hr 9 min 2 sec) 
 Total Blocks : 262144 Invalid Blocks : 0
Heartbeat CPU 2 instructions: 90000002 cycles: 37265045 heartbeat IPC: 2.41507 cumulative IPC: 2.41513 (Simulation time: 30 hr 9 min 2 sec) 
 Total Blocks : 262144 Invalid Blocks : 0
Heartbeat CPU 6 instructions: 90000002 cycles: 37265072 heartbeat IPC: 2.41509 cumulative IPC: 2.41513 (Simulation time: 30 hr 9 min 2 sec) 
 Total Blocks : 262144 Invalid Blocks : 0
Heartbeat CPU 4 instructions: 100000001 cycles: 41405157 heartbeat IPC: 2.41518 cumulative IPC: 2.41516 (Simulation time: 33 hr 3 min 51 sec) 
 Total Blocks : 262144 Invalid Blocks : 0
Heartbeat CPU 3 instructions: 100000001 cycles: 41405318 heartbeat IPC: 2.41517 cumulative IPC: 2.41515 (Simulation time: 33 hr 3 min 53 sec) 
 Total Blocks : 262144 Invalid Blocks : 0
Heartbeat CPU 5 instructions: 100000001 cycles: 41405388 heartbeat IPC: 2.41517 cumulative IPC: 2.41514 (Simulation time: 33 hr 3 min 53 sec) 
 Total Blocks : 262144 Invalid Blocks : 0
Heartbeat CPU 7 instructions: 100000001 cycles: 41405430 heartbeat IPC: 2.4152 cumulative IPC: 2.41514 (Simulation time: 33 hr 3 min 53 sec) 
 Total Blocks : 262144 Invalid Blocks : 0
Heartbeat CPU 0 instructions: 100000001 cycles: 41405485 heartbeat IPC: 2.41516 cumulative IPC: 2.41514 (Simulation time: 33 hr 3 min 54 sec) 
 Total Blocks : 262144 Invalid Blocks : 0
Heartbeat CPU 1 instructions: 100000001 cycles: 41405520 heartbeat IPC: 2.41517 cumulative IPC: 2.41514 (Simulation time: 33 hr 3 min 54 sec) 
 Total Blocks : 262144 Invalid Blocks : 0
Heartbeat CPU 2 instructions: 100000001 cycles: 41405536 heartbeat IPC: 2.41517 cumulative IPC: 2.41514 (Simulation time: 33 hr 3 min 54 sec) 
 Total Blocks : 262144 Invalid Blocks : 0
Heartbeat CPU 6 instructions: 100000001 cycles: 41405581 heartbeat IPC: 2.41516 cumulative IPC: 2.41513 (Simulation time: 33 hr 3 min 54 sec) 
 Total Blocks : 262144 Invalid Blocks : 0
Heartbeat CPU 4 instructions: 110000000 cycles: 45545863 heartbeat IPC: 2.41505 cumulative IPC: 2.41515 (Simulation time: 35 hr 56 min 30 sec) 
 Total Blocks : 262144 Invalid Blocks : 0
Heartbeat CPU 3 instructions: 110000000 cycles: 45546031 heartbeat IPC: 2.41504 cumulative IPC: 2.41514 (Simulation time: 35 hr 56 min 32 sec) 
 Total Blocks : 262144 Invalid Blocks : 0
Heartbeat CPU 5 instructions: 110000000 cycles: 45546111 heartbeat IPC: 2.41504 cumulative IPC: 2.41513 (Simulation time: 35 hr 56 min 32 sec) 
 Total Blocks : 262144 Invalid Blocks : 0
Heartbeat CPU 7 instructions: 110000000 cycles: 45546140 heartbeat IPC: 2.41504 cumulative IPC: 2.41513 (Simulation time: 35 hr 56 min 32 sec) 
 Total Blocks : 262144 Invalid Blocks : 0
Heartbeat CPU 0 instructions: 110000000 cycles: 45546195 heartbeat IPC: 2.41504 cumulative IPC: 2.41513 (Simulation time: 35 hr 56 min 36 sec) 
 Total Blocks : 262144 Invalid Blocks : 0
Heartbeat CPU 1 instructions: 110000000 cycles: 45546263 heartbeat IPC: 2.41503 cumulative IPC: 2.41513 (Simulation time: 35 hr 56 min 36 sec) 
 Total Blocks : 262144 Invalid Blocks : 0
Heartbeat CPU 2 instructions: 110000000 cycles: 45546276 heartbeat IPC: 2.41503 cumulative IPC: 2.41513 (Simulation time: 35 hr 56 min 36 sec) 
 Total Blocks : 262144 Invalid Blocks : 0
Heartbeat CPU 6 instructions: 110000000 cycles: 45546305 heartbeat IPC: 2.41504 cumulative IPC: 2.41512 (Simulation time: 35 hr 56 min 36 sec) 
 Total Blocks : 262144 Invalid Blocks : 0
Heartbeat CPU 4 instructions: 120000000 cycles: 49686490 heartbeat IPC: 2.41509 cumulative IPC: 2.41514 (Simulation time: 38 hr 53 min 40 sec) 
 Total Blocks : 262144 Invalid Blocks : 0
Heartbeat CPU 3 instructions: 120000000 cycles: 49686643 heartbeat IPC: 2.4151 cumulative IPC: 2.41514 (Simulation time: 38 hr 53 min 42 sec) 
 Total Blocks : 262144 Invalid Blocks : 0
Heartbeat CPU 5 instructions: 120000000 cycles: 49686718 heartbeat IPC: 2.4151 cumulative IPC: 2.41513 (Simulation time: 38 hr 53 min 42 sec) 
 Total Blocks : 262144 Invalid Blocks : 0
Heartbeat CPU 7 instructions: 120000000 cycles: 49686742 heartbeat IPC: 2.41511 cumulative IPC: 2.41513 (Simulation time: 38 hr 53 min 42 sec) 
 Total Blocks : 262144 Invalid Blocks : 0
Heartbeat CPU 0 instructions: 120000000 cycles: 49686809 heartbeat IPC: 2.4151 cumulative IPC: 2.41513 (Simulation time: 38 hr 53 min 42 sec) 
 Total Blocks : 262144 Invalid Blocks : 0
Heartbeat CPU 1 instructions: 120000000 cycles: 49686888 heartbeat IPC: 2.41509 cumulative IPC: 2.41512 (Simulation time: 38 hr 53 min 42 sec) 
 Total Blocks : 262144 Invalid Blocks : 0
Heartbeat CPU 2 instructions: 120000000 cycles: 49686912 heartbeat IPC: 2.41509 cumulative IPC: 2.41512 (Simulation time: 38 hr 53 min 42 sec) 
 Total Blocks : 262144 Invalid Blocks : 0
Heartbeat CPU 6 instructions: 120000000 cycles: 49686958 heartbeat IPC: 2.41508 cumulative IPC: 2.41512 (Simulation time: 38 hr 53 min 42 sec) 
 Total Blocks : 262144 Invalid Blocks : 0
Heartbeat CPU 4 instructions: 130000003 cycles: 53827233 heartbeat IPC: 2.41503 cumulative IPC: 2.41513 (Simulation time: 41 hr 48 min 44 sec) 
 Total Blocks : 262144 Invalid Blocks : 0
Heartbeat CPU 3 instructions: 130000003 cycles: 53827378 heartbeat IPC: 2.41503 cumulative IPC: 2.41513 (Simulation time: 41 hr 48 min 46 sec) 
 Total Blocks : 262144 Invalid Blocks : 0
Heartbeat CPU 5 instructions: 130000003 cycles: 53827460 heartbeat IPC: 2.41503 cumulative IPC: 2.41512 (Simulation time: 41 hr 48 min 46 sec) 
 Total Blocks : 262144 Invalid Blocks : 0
Heartbeat CPU 7 instructions: 130000003 cycles: 53827490 heartbeat IPC: 2.41502 cumulative IPC: 2.41512 (Simulation time: 41 hr 48 min 46 sec) 
 Total Blocks : 262144 Invalid Blocks : 0
Heartbeat CPU 0 instructions: 130000003 cycles: 53827547 heartbeat IPC: 2.41503 cumulative IPC: 2.41512 (Simulation time: 41 hr 48 min 46 sec) 
 Total Blocks : 262144 Invalid Blocks : 0
Heartbeat CPU 1 instructions: 130000003 cycles: 53827625 heartbeat IPC: 2.41503 cumulative IPC: 2.41512 (Simulation time: 41 hr 48 min 47 sec) 
 Total Blocks : 262144 Invalid Blocks : 0
Heartbeat CPU 2 instructions: 130000003 cycles: 53827653 heartbeat IPC: 2.41503 cumulative IPC: 2.41512 (Simulation time: 41 hr 48 min 47 sec) 
 Total Blocks : 262144 Invalid Blocks : 0
Heartbeat CPU 6 instructions: 130000003 cycles: 53827703 heartbeat IPC: 2.41502 cumulative IPC: 2.41511 (Simulation time: 41 hr 48 min 47 sec) 
 Total Blocks : 262144 Invalid Blocks : 0
Heartbeat CPU 4 instructions: 140000001 cycles: 57968021 heartbeat IPC: 2.415 cumulative IPC: 2.41512 (Simulation time: 44 hr 45 min 40 sec) 
 Total Blocks : 262144 Invalid Blocks : 0
Heartbeat CPU 3 instructions: 140000001 cycles: 57968168 heartbeat IPC: 2.415 cumulative IPC: 2.41512 (Simulation time: 44 hr 45 min 41 sec) 
 Total Blocks : 262144 Invalid Blocks : 0
Heartbeat CPU 5 instructions: 140000001 cycles: 57968248 heartbeat IPC: 2.415 cumulative IPC: 2.41512 (Simulation time: 44 hr 45 min 41 sec) 
 Total Blocks : 262144 Invalid Blocks : 0
Heartbeat CPU 7 instructions: 140000001 cycles: 57968269 heartbeat IPC: 2.415 cumulative IPC: 2.41511 (Simulation time: 44 hr 45 min 41 sec) 
 Total Blocks : 262144 Invalid Blocks : 0
Heartbeat CPU 0 instructions: 140000001 cycles: 57968339 heartbeat IPC: 2.415 cumulative IPC: 2.41511 (Simulation time: 44 hr 45 min 41 sec) 
 Total Blocks : 262144 Invalid Blocks : 0
Heartbeat CPU 1 instructions: 140000001 cycles: 57968422 heartbeat IPC: 2.41499 cumulative IPC: 2.41511 (Simulation time: 44 hr 45 min 41 sec) 
 Total Blocks : 262144 Invalid Blocks : 0
Heartbeat CPU 2 instructions: 140000001 cycles: 57968449 heartbeat IPC: 2.41499 cumulative IPC: 2.41511 (Simulation time: 44 hr 45 min 41 sec) 
 Total Blocks : 262144 Invalid Blocks : 0
Heartbeat CPU 6 instructions: 140000001 cycles: 57968499 heartbeat IPC: 2.41499 cumulative IPC: 2.4151 (Simulation time: 44 hr 45 min 41 sec) 
 Total Blocks : 262144 Invalid Blocks : 0
Heartbeat CPU 4 instructions: 150000001 cycles: 62108260 heartbeat IPC: 2.41532 cumulative IPC: 2.41514 (Simulation time: 47 hr 28 min 41 sec) 
 Total Blocks : 262144 Invalid Blocks : 0
Heartbeat CPU 3 instructions: 150000001 cycles: 62108417 heartbeat IPC: 2.41531 cumulative IPC: 2.41513 (Simulation time: 47 hr 28 min 43 sec) 
 Total Blocks : 262144 Invalid Blocks : 0
Heartbeat CPU 5 instructions: 150000001 cycles: 62108497 heartbeat IPC: 2.41531 cumulative IPC: 2.41513 (Simulation time: 47 hr 28 min 43 sec) 
 Total Blocks : 262144 Invalid Blocks : 0
Heartbeat CPU 7 instructions: 150000001 cycles: 62108518 heartbeat IPC: 2.41531 cumulative IPC: 2.41513 (Simulation time: 47 hr 28 min 43 sec) 
 Total Blocks : 262144 Invalid Blocks : 0
Heartbeat CPU 0 instructions: 150000001 cycles: 62108591 heartbeat IPC: 2.41531 cumulative IPC: 2.41512 (Simulation time: 47 hr 28 min 43 sec) 
 Total Blocks : 262144 Invalid Blocks : 0
Heartbeat CPU 1 instructions: 150000001 cycles: 62108660 heartbeat IPC: 2.41532 cumulative IPC: 2.41512 (Simulation time: 47 hr 28 min 43 sec) 
 Total Blocks : 262144 Invalid Blocks : 0
Heartbeat CPU 2 instructions: 150000001 cycles: 62108699 heartbeat IPC: 2.41531 cumulative IPC: 2.41512 (Simulation time: 47 hr 28 min 43 sec) 
 Total Blocks : 262144 Invalid Blocks : 0
Heartbeat CPU 6 instructions: 150000001 cycles: 62108756 heartbeat IPC: 2.41531 cumulative IPC: 2.41512 (Simulation time: 47 hr 28 min 43 sec) 
 Total Blocks : 262144 Invalid Blocks : 0
Heartbeat CPU 4 instructions: 160000000 cycles: 66248853 heartbeat IPC: 2.41511 cumulative IPC: 2.41514 (Simulation time: 50 hr 10 min 17 sec) 
 Total Blocks : 262144 Invalid Blocks : 0
Heartbeat CPU 3 instructions: 160000000 cycles: 66249007 heartbeat IPC: 2.41511 cumulative IPC: 2.41513 (Simulation time: 50 hr 10 min 18 sec) 
 Total Blocks : 262144 Invalid Blocks : 0
Heartbeat CPU 5 instructions: 160000000 cycles: 66249095 heartbeat IPC: 2.41511 cumulative IPC: 2.41513 (Simulation time: 50 hr 10 min 18 sec) 
 Total Blocks : 262144 Invalid Blocks : 0
Heartbeat CPU 7 instructions: 160000000 cycles: 66249149 heartbeat IPC: 2.41509 cumulative IPC: 2.41513 (Simulation time: 50 hr 10 min 18 sec) 
 Total Blocks : 262144 Invalid Blocks : 0
Heartbeat CPU 0 instructions: 160000000 cycles: 66249192 heartbeat IPC: 2.41511 cumulative IPC: 2.41512 (Simulation time: 50 hr 10 min 18 sec) 
 Total Blocks : 262144 Invalid Blocks : 0
Heartbeat CPU 1 instructions: 160000000 cycles: 66249251 heartbeat IPC: 2.41511 cumulative IPC: 2.41512 (Simulation time: 50 hr 10 min 19 sec) 
 Total Blocks : 262144 Invalid Blocks : 0
Heartbeat CPU 2 instructions: 160000000 cycles: 66249305 heartbeat IPC: 2.41511 cumulative IPC: 2.41512 (Simulation time: 50 hr 10 min 19 sec) 
 Total Blocks : 262144 Invalid Blocks : 0
Heartbeat CPU 6 instructions: 160000000 cycles: 66249366 heartbeat IPC: 2.4151 cumulative IPC: 2.41512 (Simulation time: 50 hr 10 min 19 sec) 
 Total Blocks : 262144 Invalid Blocks : 0
Heartbeat CPU 4 instructions: 170000003 cycles: 70389214 heartbeat IPC: 2.41525 cumulative IPC: 2.41514 (Simulation time: 52 hr 46 min 20 sec) 
 Total Blocks : 262144 Invalid Blocks : 0
Heartbeat CPU 3 instructions: 170000003 cycles: 70389376 heartbeat IPC: 2.41524 cumulative IPC: 2.41514 (Simulation time: 52 hr 46 min 21 sec) 
 Total Blocks : 262144 Invalid Blocks : 0
Heartbeat CPU 5 instructions: 170000003 cycles: 70389469 heartbeat IPC: 2.41524 cumulative IPC: 2.41513 (Simulation time: 52 hr 46 min 21 sec) 
 Total Blocks : 262144 Invalid Blocks : 0
Heartbeat CPU 7 instructions: 170000003 cycles: 70389528 heartbeat IPC: 2.41524 cumulative IPC: 2.41513 (Simulation time: 52 hr 46 min 21 sec) 
 Total Blocks : 262144 Invalid Blocks : 0
Heartbeat CPU 0 instructions: 170000003 cycles: 70389580 heartbeat IPC: 2.41523 cumulative IPC: 2.41513 (Simulation time: 52 hr 46 min 21 sec) 
 Total Blocks : 262144 Invalid Blocks : 0
Heartbeat CPU 1 instructions: 170000003 cycles: 70389634 heartbeat IPC: 2.41524 cumulative IPC: 2.41513 (Simulation time: 52 hr 46 min 21 sec) 
 Total Blocks : 262144 Invalid Blocks : 0
Heartbeat CPU 2 instructions: 170000003 cycles: 70389686 heartbeat IPC: 2.41524 cumulative IPC: 2.41513 (Simulation time: 52 hr 46 min 21 sec) 
 Total Blocks : 262144 Invalid Blocks : 0
Heartbeat CPU 6 instructions: 170000003 cycles: 70389740 heartbeat IPC: 2.41524 cumulative IPC: 2.41512 (Simulation time: 52 hr 46 min 21 sec) 
 Total Blocks : 262144 Invalid Blocks : 0
Heartbeat CPU 4 instructions: 180000001 cycles: 74529811 heartbeat IPC: 2.41511 cumulative IPC: 2.41514 (Simulation time: 55 hr 22 min 41 sec) 
 Total Blocks : 262144 Invalid Blocks : 0
Heartbeat CPU 3 instructions: 180000001 cycles: 74529971 heartbeat IPC: 2.41511 cumulative IPC: 2.41514 (Simulation time: 55 hr 22 min 47 sec) 
 Total Blocks : 262144 Invalid Blocks : 0
Heartbeat CPU 5 instructions: 180000001 cycles: 74530074 heartbeat IPC: 2.41511 cumulative IPC: 2.41513 (Simulation time: 55 hr 22 min 48 sec) 
 Total Blocks : 262144 Invalid Blocks : 0
Heartbeat CPU 7 instructions: 180000001 cycles: 74530135 heartbeat IPC: 2.4151 cumulative IPC: 2.41513 (Simulation time: 55 hr 22 min 48 sec) 
 Total Blocks : 262144 Invalid Blocks : 0
Heartbeat CPU 0 instructions: 180000001 cycles: 74530183 heartbeat IPC: 2.41511 cumulative IPC: 2.41513 (Simulation time: 55 hr 22 min 48 sec) 
 Total Blocks : 262144 Invalid Blocks : 0
Heartbeat CPU 1 instructions: 180000001 cycles: 74530243 heartbeat IPC: 2.4151 cumulative IPC: 2.41513 (Simulation time: 55 hr 22 min 48 sec) 
 Total Blocks : 262144 Invalid Blocks : 0
Heartbeat CPU 2 instructions: 180000001 cycles: 74530296 heartbeat IPC: 2.4151 cumulative IPC: 2.41513 (Simulation time: 55 hr 22 min 48 sec) 
 Total Blocks : 262144 Invalid Blocks : 0
Heartbeat CPU 6 instructions: 180000001 cycles: 74530364 heartbeat IPC: 2.41509 cumulative IPC: 2.41512 (Simulation time: 55 hr 22 min 48 sec) 
 Total Blocks : 262144 Invalid Blocks : 0
Heartbeat CPU 4 instructions: 190000002 cycles: 78670354 heartbeat IPC: 2.41514 cumulative IPC: 2.41514 (Simulation time: 57 hr 51 min 0 sec) 
 Total Blocks : 262144 Invalid Blocks : 0
Heartbeat CPU 3 instructions: 190000002 cycles: 78670518 heartbeat IPC: 2.41514 cumulative IPC: 2.41514 (Simulation time: 57 hr 51 min 2 sec) 
 Total Blocks : 262144 Invalid Blocks : 0
Heartbeat CPU 5 instructions: 190000002 cycles: 78670636 heartbeat IPC: 2.41513 cumulative IPC: 2.41513 (Simulation time: 57 hr 51 min 2 sec) 
 Total Blocks : 262144 Invalid Blocks : 0
Heartbeat CPU 7 instructions: 190000002 cycles: 78670679 heartbeat IPC: 2.41514 cumulative IPC: 2.41513 (Simulation time: 57 hr 51 min 2 sec) 
 Total Blocks : 262144 Invalid Blocks : 0
Heartbeat CPU 0 instructions: 190000002 cycles: 78670732 heartbeat IPC: 2.41514 cumulative IPC: 2.41513 (Simulation time: 57 hr 51 min 2 sec) 
 Total Blocks : 262144 Invalid Blocks : 0
Heartbeat CPU 1 instructions: 190000002 cycles: 78670802 heartbeat IPC: 2.41513 cumulative IPC: 2.41513 (Simulation time: 57 hr 51 min 3 sec) 
 Total Blocks : 262144 Invalid Blocks : 0
Heartbeat CPU 2 instructions: 190000002 cycles: 78670848 heartbeat IPC: 2.41514 cumulative IPC: 2.41513 (Simulation time: 57 hr 51 min 3 sec) 
 Total Blocks : 262144 Invalid Blocks : 0
Heartbeat CPU 6 instructions: 190000002 cycles: 78670917 heartbeat IPC: 2.41514 cumulative IPC: 2.41512 (Simulation time: 57 hr 51 min 3 sec) 
 Total Blocks : 262144 Invalid Blocks : 0
Heartbeat CPU 4 instructions: 200000003 cycles: 82810805 heartbeat IPC: 2.4152 cumulative IPC: 2.41514 (Simulation time: 60 hr 19 min 34 sec) 
 Total Blocks : 262144 Invalid Blocks : 0
Heartbeat CPU 3 instructions: 200000003 cycles: 82810974 heartbeat IPC: 2.41519 cumulative IPC: 2.41514 (Simulation time: 60 hr 19 min 35 sec) 
 Total Blocks : 262144 Invalid Blocks : 0
Heartbeat CPU 5 instructions: 200000003 cycles: 82811095 heartbeat IPC: 2.41519 cumulative IPC: 2.41514 (Simulation time: 60 hr 19 min 35 sec) 
 Total Blocks : 262144 Invalid Blocks : 0
Heartbeat CPU 7 instructions: 200000003 cycles: 82811146 heartbeat IPC: 2.41519 cumulative IPC: 2.41513 (Simulation time: 60 hr 19 min 35 sec) 
 Total Blocks : 262144 Invalid Blocks : 0
Heartbeat CPU 0 instructions: 200000003 cycles: 82811203 heartbeat IPC: 2.41518 cumulative IPC: 2.41513 (Simulation time: 60 hr 19 min 35 sec) 
 Total Blocks : 262144 Invalid Blocks : 0
Heartbeat CPU 1 instructions: 200000003 cycles: 82811271 heartbeat IPC: 2.41519 cumulative IPC: 2.41513 (Simulation time: 60 hr 19 min 35 sec) 
 Total Blocks : 262144 Invalid Blocks : 0
Heartbeat CPU 2 instructions: 200000003 cycles: 82811338 heartbeat IPC: 2.41517 cumulative IPC: 2.41513 (Simulation time: 60 hr 19 min 36 sec) 
 Total Blocks : 262144 Invalid Blocks : 0
Heartbeat CPU 6 instructions: 200000003 cycles: 82811393 heartbeat IPC: 2.41518 cumulative IPC: 2.41513 (Simulation time: 60 hr 19 min 36 sec) 
 Total Blocks : 262144 Invalid Blocks : 0

Warmup complete CPU 0 instructions: 200000430 cycles: 82811393 (Simulation time: 60 hr 19 min 36 sec) 
Warmup complete CPU 1 instructions: 200000314 cycles: 82811393 (Simulation time: 60 hr 19 min 36 sec) 
Warmup complete CPU 2 instructions: 200000084 cycles: 82811393 (Simulation time: 60 hr 19 min 36 sec) 
Warmup complete CPU 3 instructions: 200001011 cycles: 82811393 (Simulation time: 60 hr 19 min 36 sec) 
Warmup complete CPU 4 instructions: 200001348 cycles: 82811393 (Simulation time: 60 hr 19 min 36 sec) 
Warmup complete CPU 5 instructions: 200000746 cycles: 82811393 (Simulation time: 60 hr 19 min 36 sec) 
Warmup complete CPU 6 instructions: 200000003 cycles: 82811393 (Simulation time: 60 hr 19 min 36 sec) 
Warmup complete CPU 7 instructions: 200000559 cycles: 82811392 (Simulation time: 60 hr 19 min 36 sec) 

Heartbeat CPU 5 instructions: 210000002 cycles: 98724685 heartbeat IPC: 0.628394 cumulative IPC: 0.628359 (Simulation time: 63 hr 8 min 51 sec) 
 Total Blocks : 262144 Invalid Blocks : 0
Heartbeat CPU 1 instructions: 210000002 cycles: 98778849 heartbeat IPC: 0.626269 cumulative IPC: 0.626254 (Simulation time: 63 hr 9 min 15 sec) 
 Total Blocks : 262144 Invalid Blocks : 0
Heartbeat CPU 6 instructions: 210000002 cycles: 98795165 heartbeat IPC: 0.625634 cumulative IPC: 0.625634 (Simulation time: 63 hr 9 min 21 sec) 
 Total Blocks : 262144 Invalid Blocks : 0
Heartbeat CPU 3 instructions: 210000002 cycles: 98808775 heartbeat IPC: 0.625086 cumulative IPC: 0.625039 (Simulation time: 63 hr 9 min 40 sec) 
 Total Blocks : 262144 Invalid Blocks : 0
Heartbeat CPU 2 instructions: 210000002 cycles: 98816387 heartbeat IPC: 0.624803 cumulative IPC: 0.6248 (Simulation time: 63 hr 9 min 56 sec) 
 Total Blocks : 262144 Invalid Blocks : 0
Heartbeat CPU 7 instructions: 210000002 cycles: 98867528 heartbeat IPC: 0.622805 cumulative IPC: 0.62278 (Simulation time: 63 hr 10 min 19 sec) 
 Total Blocks : 262144 Invalid Blocks : 0
Heartbeat CPU 4 instructions: 210000002 cycles: 99001702 heartbeat IPC: 0.617631 cumulative IPC: 0.61757 (Simulation time: 63 hr 11 min 35 sec) 
 Total Blocks : 262144 Invalid Blocks : 0
Heartbeat CPU 0 instructions: 210000002 cycles: 99064586 heartbeat IPC: 0.615256 cumulative IPC: 0.615237 (Simulation time: 63 hr 12 min 28 sec) 
 Total Blocks : 262144 Invalid Blocks : 0
Heartbeat CPU 3 instructions: 220000000 cycles: 114597890 heartbeat IPC: 0.633348 cumulative IPC: 0.629166 (Simulation time: 65 hr 51 min 12 sec) 
 Total Blocks : 262144 Invalid Blocks : 0
Heartbeat CPU 5 instructions: 220000000 cycles: 114639332 heartbeat IPC: 0.628352 cumulative IPC: 0.628355 (Simulation time: 65 hr 51 min 48 sec) 
 Total Blocks : 262144 Invalid Blocks : 0
Heartbeat CPU 1 instructions: 220000000 cycles: 114688761 heartbeat IPC: 0.628539 cumulative IPC: 0.627394 (Simulation time: 65 hr 52 min 15 sec) 
 Total Blocks : 262144 Invalid Blocks : 0
Heartbeat CPU 2 instructions: 220000000 cycles: 114719477 heartbeat IPC: 0.628808 cumulative IPC: 0.626798 (Simulation time: 65 hr 52 min 33 sec) 
 Total Blocks : 262144 Invalid Blocks : 0
Heartbeat CPU 6 instructions: 220000000 cycles: 114765830 heartbeat IPC: 0.626148 cumulative IPC: 0.625891 (Simulation time: 65 hr 53 min 3 sec) 
 Total Blocks : 262144 Invalid Blocks : 0
Heartbeat CPU 7 instructions: 220000000 cycles: 114837910 heartbeat IPC: 0.626159 cumulative IPC: 0.624465 (Simulation time: 65 hr 53 min 41 sec) 
 Total Blocks : 262144 Invalid Blocks : 0
Heartbeat CPU 4 instructions: 220000000 cycles: 114855903 heartbeat IPC: 0.630747 cumulative IPC: 0.62409 (Simulation time: 65 hr 53 min 58 sec) 
 Total Blocks : 262144 Invalid Blocks : 0
Heartbeat CPU 0 instructions: 220000000 cycles: 115025725 heartbeat IPC: 0.626522 cumulative IPC: 0.620828 (Simulation time: 65 hr 55 min 42 sec) 
 Total Blocks : 262144 Invalid Blocks : 0
Heartbeat CPU 5 instructions: 230000003 cycles: 130727608 heartbeat IPC: 0.621571 cumulative IPC: 0.626077 (Simulation time: 68 hr 35 min 54 sec) 
 Total Blocks : 262144 Invalid Blocks : 0
Heartbeat CPU 3 instructions: 230000003 cycles: 130735180 heartbeat IPC: 0.619683 cumulative IPC: 0.625973 (Simulation time: 68 hr 35 min 59 sec) 
 Total Blocks : 262144 Invalid Blocks : 0
Heartbeat CPU 6 instructions: 230000003 cycles: 130746747 heartbeat IPC: 0.625746 cumulative IPC: 0.625843 (Simulation time: 68 hr 36 min 10 sec) 
 Total Blocks : 262144 Invalid Blocks : 0
Heartbeat CPU 1 instructions: 230000003 cycles: 130754824 heartbeat IPC: 0.62243 cumulative IPC: 0.625731 (Simulation time: 68 hr 36 min 14 sec) 
 Total Blocks : 262144 Invalid Blocks : 0
Heartbeat CPU 7 instructions: 230000003 cycles: 130823455 heartbeat IPC: 0.625565 cumulative IPC: 0.624831 (Simulation time: 68 hr 36 min 52 sec) 
 Total Blocks : 262144 Invalid Blocks : 0
Heartbeat CPU 2 instructions: 230000003 cycles: 130844680 heartbeat IPC: 0.620147 cumulative IPC: 0.624565 (Simulation time: 68 hr 37 min 6 sec) 
 Total Blocks : 262144 Invalid Blocks : 0
Heartbeat CPU 0 instructions: 230000003 cycles: 131013934 heartbeat IPC: 0.625461 cumulative IPC: 0.622365 (Simulation time: 68 hr 38 min 49 sec) 
 Total Blocks : 262144 Invalid Blocks : 0
Heartbeat CPU 4 instructions: 230000003 cycles: 131025158 heartbeat IPC: 0.618458 cumulative IPC: 0.622201 (Simulation time: 68 hr 39 min 0 sec) 
 Total Blocks : 262144 Invalid Blocks : 0
Heartbeat CPU 3 instructions: 240000003 cycles: 146478205 heartbeat IPC: 0.635202 cumulative IPC: 0.628255 (Simulation time: 71 hr 10 min 58 sec) 
 Total Blocks : 262144 Invalid Blocks : 0
Heartbeat CPU 1 instructions: 240000003 cycles: 146517459 heartbeat IPC: 0.634412 cumulative IPC: 0.627879 (Simulation time: 71 hr 11 min 19 sec) 
 Total Blocks : 262144 Invalid Blocks : 0
Heartbeat CPU 6 instructions: 240000003 cycles: 146549257 heartbeat IPC: 0.632811 cumulative IPC: 0.62757 (Simulation time: 71 hr 11 min 41 sec) 
 Total Blocks : 262144 Invalid Blocks : 0
Heartbeat CPU 5 instructions: 240000003 cycles: 146551955 heartbeat IPC: 0.631938 cumulative IPC: 0.627532 (Simulation time: 71 hr 11 min 42 sec) 
 Total Blocks : 262144 Invalid Blocks : 0
Heartbeat CPU 7 instructions: 240000003 cycles: 146648285 heartbeat IPC: 0.631918 cumulative IPC: 0.626588 (Simulation time: 71 hr 12 min 42 sec) 
 Total Blocks : 262144 Invalid Blocks : 0
Heartbeat CPU 2 instructions: 240000003 cycles: 146824234 heartbeat IPC: 0.6258 cumulative IPC: 0.624873 (Simulation time: 71 hr 14 min 27 sec) 
 Total Blocks : 262144 Invalid Blocks : 0
Heartbeat CPU 0 instructions: 240000003 cycles: 146866812 heartbeat IPC: 0.6308 cumulative IPC: 0.624453 (Simulation time: 71 hr 14 min 45 sec) 
 Total Blocks : 262144 Invalid Blocks : 0
Heartbeat CPU 4 instructions: 240000003 cycles: 146872002 heartbeat IPC: 0.63104 cumulative IPC: 0.624388 (Simulation time: 71 hr 14 min 50 sec) 
 Total Blocks : 262144 Invalid Blocks : 0
Heartbeat CPU 5 instructions: 250000003 cycles: 162426979 heartbeat IPC: 0.62992 cumulative IPC: 0.628008 (Simulation time: 73 hr 44 min 11 sec) 
 Total Blocks : 262144 Invalid Blocks : 0
Heartbeat CPU 3 instructions: 250000003 cycles: 162443976 heartbeat IPC: 0.62634 cumulative IPC: 0.627871 (Simulation time: 73 hr 44 min 21 sec) 
 Total Blocks : 262144 Invalid Blocks : 0
Heartbeat CPU 1 instructions: 250000003 cycles: 162492035 heartbeat IPC: 0.625995 cumulative IPC: 0.627501 (Simulation time: 73 hr 44 min 56 sec) 
 Total Blocks : 262144 Invalid Blocks : 0
Heartbeat CPU 7 instructions: 250000003 cycles: 162636463 heartbeat IPC: 0.625462 cumulative IPC: 0.626363 (Simulation time: 73 hr 46 min 20 sec) 
 Total Blocks : 262144 Invalid Blocks : 0
Heartbeat CPU 0 instructions: 250000003 cycles: 162771394 heartbeat IPC: 0.62875 cumulative IPC: 0.625307 (Simulation time: 73 hr 47 min 36 sec) 
 Total Blocks : 262144 Invalid Blocks : 0
Heartbeat CPU 6 instructions: 250000003 cycles: 162780606 heartbeat IPC: 0.616092 cumulative IPC: 0.625241 (Simulation time: 73 hr 47 min 42 sec) 
 Total Blocks : 262144 Invalid Blocks : 0
Heartbeat CPU 2 instructions: 250000003 cycles: 162807787 heartbeat IPC: 0.625643 cumulative IPC: 0.625027 (Simulation time: 73 hr 48 min 4 sec) 
 Total Blocks : 262144 Invalid Blocks : 0
Heartbeat CPU 4 instructions: 250000003 cycles: 162850739 heartbeat IPC: 0.625832 cumulative IPC: 0.624676 (Simulation time: 73 hr 48 min 30 sec) 
 Total Blocks : 262144 Invalid Blocks : 0
Heartbeat CPU 1 instructions: 260000001 cycles: 178242234 heartbeat IPC: 0.634912 cumulative IPC: 0.628724 (Simulation time: 76 hr 17 min 7 sec) 
 Total Blocks : 262144 Invalid Blocks : 0
Heartbeat CPU 5 instructions: 260000001 cycles: 178361389 heartbeat IPC: 0.627573 cumulative IPC: 0.627936 (Simulation time: 76 hr 18 min 19 sec) 
 Total Blocks : 262144 Invalid Blocks : 0
Heartbeat CPU 3 instructions: 260000001 cycles: 178382209 heartbeat IPC: 0.627422 cumulative IPC: 0.627796 (Simulation time: 76 hr 18 min 39 sec) 
 Total Blocks : 262144 Invalid Blocks : 0
Heartbeat CPU 7 instructions: 260000001 cycles: 178599830 heartbeat IPC: 0.626434 cumulative IPC: 0.626375 (Simulation time: 76 hr 20 min 50 sec) 
 Total Blocks : 262144 Invalid Blocks : 0
Heartbeat CPU 6 instructions: 260000001 cycles: 178683295 heartbeat IPC: 0.628824 cumulative IPC: 0.625835 (Simulation time: 76 hr 21 min 47 sec) 
 Total Blocks : 262144 Invalid Blocks : 0
Heartbeat CPU 0 instructions: 260000001 cycles: 178697532 heartbeat IPC: 0.627899 cumulative IPC: 0.625738 (Simulation time: 76 hr 21 min 54 sec) 
 Total Blocks : 262144 Invalid Blocks : 0
Heartbeat CPU 2 instructions: 260000001 cycles: 178837449 heartbeat IPC: 0.623843 cumulative IPC: 0.62483 (Simulation time: 76 hr 23 min 4 sec) 
 Total Blocks : 262144 Invalid Blocks : 0
Heartbeat CPU 4 instructions: 260000001 cycles: 178867738 heartbeat IPC: 0.624337 cumulative IPC: 0.624619 (Simulation time: 76 hr 23 min 25 sec) 
 Total Blocks : 262144 Invalid Blocks : 0
Heartbeat CPU 1 instructions: 270000001 cycles: 194106184 heartbeat IPC: 0.63036 cumulative IPC: 0.628957 (Simulation time: 78 hr 53 min 10 sec) 
 Total Blocks : 262144 Invalid Blocks : 0
Heartbeat CPU 5 instructions: 270000001 cycles: 194245795 heartbeat IPC: 0.629548 cumulative IPC: 0.628166 (Simulation time: 78 hr 54 min 48 sec) 
 Total Blocks : 262144 Invalid Blocks : 0
Heartbeat CPU 3 instructions: 270000001 cycles: 194337852 heartbeat IPC: 0.626738 cumulative IPC: 0.627645 (Simulation time: 78 hr 55 min 47 sec) 
 Total Blocks : 262144 Invalid Blocks : 0
Heartbeat CPU 7 instructions: 270000001 cycles: 194491893 heartbeat IPC: 0.629245 cumulative IPC: 0.626783 (Simulation time: 78 hr 57 min 20 sec) 
 Total Blocks : 262144 Invalid Blocks : 0
Heartbeat CPU 6 instructions: 270000001 cycles: 194676826 heartbeat IPC: 0.625253 cumulative IPC: 0.625752 (Simulation time: 78 hr 59 min 23 sec) 
 Total Blocks : 262144 Invalid Blocks : 0
Heartbeat CPU 0 instructions: 270000001 cycles: 194689333 heartbeat IPC: 0.62532 cumulative IPC: 0.625678 (Simulation time: 78 hr 59 min 26 sec) 
 Total Blocks : 262144 Invalid Blocks : 0
Heartbeat CPU 4 instructions: 270000001 cycles: 194764687 heartbeat IPC: 0.629052 cumulative IPC: 0.625249 (Simulation time: 79 hr 0 min 10 sec) 
 Total Blocks : 262144 Invalid Blocks : 0
Heartbeat CPU 2 instructions: 270000001 cycles: 194915005 heartbeat IPC: 0.621985 cumulative IPC: 0.624422 (Simulation time: 79 hr 1 min 45 sec) 
 Total Blocks : 262144 Invalid Blocks : 0
Heartbeat CPU 1 instructions: 280000002 cycles: 210170508 heartbeat IPC: 0.622497 cumulative IPC: 0.628143 (Simulation time: 81 hr 33 min 14 sec) 
 Total Blocks : 262144 Invalid Blocks : 0
Heartbeat CPU 3 instructions: 280000000 cycles: 210279142 heartbeat IPC: 0.627302 cumulative IPC: 0.627602 (Simulation time: 81 hr 34 min 20 sec) 
 Total Blocks : 262144 Invalid Blocks : 0
Heartbeat CPU 5 instructions: 280000002 cycles: 210309657 heartbeat IPC: 0.622515 cumulative IPC: 0.627454 (Simulation time: 81 hr 34 min 29 sec) 
 Total Blocks : 262144 Invalid Blocks : 0
Heartbeat CPU 7 instructions: 280000002 cycles: 210416711 heartbeat IPC: 0.627951 cumulative IPC: 0.626929 (Simulation time: 81 hr 35 min 39 sec) 
 Total Blocks : 262144 Invalid Blocks : 0
Heartbeat CPU 4 instructions: 280000002 cycles: 210727180 heartbeat IPC: 0.626469 cumulative IPC: 0.625401 (Simulation time: 81 hr 38 min 30 sec) 
 Total Blocks : 262144 Invalid Blocks : 0
Heartbeat CPU 0 instructions: 280000002 cycles: 210768545 heartbeat IPC: 0.621921 cumulative IPC: 0.625206 (Simulation time: 81 hr 39 min 5 sec) 
 Total Blocks : 262144 Invalid Blocks : 0
Heartbeat CPU 6 instructions: 280000002 cycles: 210807354 heartbeat IPC: 0.619943 cumulative IPC: 0.62502 (Simulation time: 81 hr 39 min 26 sec) 
 Total Blocks : 262144 Invalid Blocks : 0
Heartbeat CPU 2 instructions: 280000002 cycles: 210893067 heartbeat IPC: 0.625858 cumulative IPC: 0.624601 (Simulation time: 81 hr 40 min 26 sec) 
 Total Blocks : 262144 Invalid Blocks : 0
Heartbeat CPU 1 instructions: 290000002 cycles: 226075981 heartbeat IPC: 0.628714 cumulative IPC: 0.628206 (Simulation time: 84 hr 11 min 31 sec) 
 Total Blocks : 262144 Invalid Blocks : 0
Heartbeat CPU 3 instructions: 290000002 cycles: 226209806 heartbeat IPC: 0.62772 cumulative IPC: 0.627615 (Simulation time: 84 hr 12 min 52 sec) 
 Total Blocks : 262144 Invalid Blocks : 0
Heartbeat CPU 5 instructions: 290000002 cycles: 226259684 heartbeat IPC: 0.626958 cumulative IPC: 0.627399 (Simulation time: 84 hr 13 min 16 sec) 
 Total Blocks : 262144 Invalid Blocks : 0
Heartbeat CPU 7 instructions: 290000000 cycles: 226400953 heartbeat IPC: 0.625616 cumulative IPC: 0.626783 (Simulation time: 84 hr 14 min 37 sec) 
 Total Blocks : 262144 Invalid Blocks : 0
Heartbeat CPU 4 instructions: 290000002 cycles: 226612300 heartbeat IPC: 0.62952 cumulative IPC: 0.625856 (Simulation time: 84 hr 16 min 46 sec) 
 Total Blocks : 262144 Invalid Blocks : 0
Heartbeat CPU 0 instructions: 290000002 cycles: 226697045 heartbeat IPC: 0.627806 cumulative IPC: 0.625494 (Simulation time: 84 hr 17 min 35 sec) 
 Total Blocks : 262144 Invalid Blocks : 0
Heartbeat CPU 6 instructions: 290000002 cycles: 226717768 heartbeat IPC: 0.628519 cumulative IPC: 0.625407 (Simulation time: 84 hr 17 min 48 sec) 
 Total Blocks : 262144 Invalid Blocks : 0
Heartbeat CPU 2 instructions: 290000002 cycles: 227031165 heartbeat IPC: 0.619652 cumulative IPC: 0.624047 (Simulation time: 84 hr 20 min 55 sec) 
 Total Blocks : 262144 Invalid Blocks : 0
Heartbeat CPU 1 instructions: 300000001 cycles: 242099796 heartbeat IPC: 0.624071 cumulative IPC: 0.62779 (Simulation time: 86 hr 52 min 48 sec) 
 Total Blocks : 262144 Invalid Blocks : 0
Heartbeat CPU 5 instructions: 300000001 cycles: 242176013 heartbeat IPC: 0.628286 cumulative IPC: 0.627487 (Simulation time: 86 hr 53 min 34 sec) 
 Total Blocks : 262144 Invalid Blocks : 0
Heartbeat CPU 3 instructions: 300000001 cycles: 242180312 heartbeat IPC: 0.626154 cumulative IPC: 0.627469 (Simulation time: 86 hr 53 min 39 sec) 
 Total Blocks : 262144 Invalid Blocks : 0
Heartbeat CPU 7 instructions: 300000001 cycles: 242336473 heartbeat IPC: 0.627529 cumulative IPC: 0.626857 (Simulation time: 86 hr 55 min 10 sec) 
 Total Blocks : 262144 Invalid Blocks : 0
Heartbeat CPU 4 instructions: 300000001 cycles: 242663384 heartbeat IPC: 0.623011 cumulative IPC: 0.62557 (Simulation time: 86 hr 58 min 29 sec) 
 Total Blocks : 262144 Invalid Blocks : 0
Heartbeat CPU 6 instructions: 300000001 cycles: 242670935 heartbeat IPC: 0.626835 cumulative IPC: 0.625549 (Simulation time: 86 hr 58 min 34 sec) 
 Total Blocks : 262144 Invalid Blocks : 0
Heartbeat CPU 0 instructions: 300000001 cycles: 242772632 heartbeat IPC: 0.622061 cumulative IPC: 0.625149 (Simulation time: 86 hr 59 min 40 sec) 
 Total Blocks : 262144 Invalid Blocks : 0
Heartbeat CPU 2 instructions: 300000001 cycles: 242980720 heartbeat IPC: 0.626977 cumulative IPC: 0.624339 (Simulation time: 87 hr 1 min 32 sec) 
 Total Blocks : 262144 Invalid Blocks : 0
Heartbeat CPU 1 instructions: 310000002 cycles: 258082637 heartbeat IPC: 0.625671 cumulative IPC: 0.627597 (Simulation time: 89 hr 34 min 5 sec) 
 Total Blocks : 262144 Invalid Blocks : 0
Heartbeat CPU 3 instructions: 310000003 cycles: 258160507 heartbeat IPC: 0.625775 cumulative IPC: 0.627314 (Simulation time: 89 hr 34 min 47 sec) 
 Total Blocks : 262144 Invalid Blocks : 0
Heartbeat CPU 5 instructions: 310000002 cycles: 258242408 heartbeat IPC: 0.622417 cumulative IPC: 0.627023 (Simulation time: 89 hr 35 min 37 sec) 
 Total Blocks : 262144 Invalid Blocks : 0
Heartbeat CPU 7 instructions: 310000003 cycles: 258421387 heartbeat IPC: 0.621701 cumulative IPC: 0.626385 (Simulation time: 89 hr 37 min 30 sec) 
 Total Blocks : 262144 Invalid Blocks : 0
Heartbeat CPU 6 instructions: 310000002 cycles: 258509903 heartbeat IPC: 0.631354 cumulative IPC: 0.626072 (Simulation time: 89 hr 38 min 20 sec) 
 Total Blocks : 262144 Invalid Blocks : 0
Heartbeat CPU 4 instructions: 310000003 cycles: 258583799 heartbeat IPC: 0.628124 cumulative IPC: 0.625802 (Simulation time: 89 hr 39 min 10 sec) 
 Total Blocks : 262144 Invalid Blocks : 0
Heartbeat CPU 0 instructions: 310000003 cycles: 258633094 heartbeat IPC: 0.630499 cumulative IPC: 0.625631 (Simulation time: 89 hr 39 min 40 sec) 
 Total Blocks : 262144 Invalid Blocks : 0
Heartbeat CPU 2 instructions: 310000003 cycles: 258906234 heartbeat IPC: 0.627923 cumulative IPC: 0.624663 (Simulation time: 89 hr 42 min 29 sec) 
 Total Blocks : 262144 Invalid Blocks : 0
Heartbeat CPU 3 instructions: 320000003 cycles: 274090809 heartbeat IPC: 0.627734 cumulative IPC: 0.627349 (Simulation time: 92 hr 17 min 18 sec) 
 Total Blocks : 262144 Invalid Blocks : 0
Heartbeat CPU 5 instructions: 320000003 cycles: 274096793 heartbeat IPC: 0.63074 cumulative IPC: 0.627331 (Simulation time: 92 hr 17 min 28 sec) 
 Total Blocks : 262144 Invalid Blocks : 0
Heartbeat CPU 1 instructions: 320000003 cycles: 274099579 heartbeat IPC: 0.624339 cumulative IPC: 0.627324 (Simulation time: 92 hr 17 min 32 sec) 
 Total Blocks : 262144 Invalid Blocks : 0
Heartbeat CPU 6 instructions: 320000003 cycles: 274433846 heartbeat IPC: 0.627985 cumulative IPC: 0.626231 (Simulation time: 92 hr 20 min 48 sec) 
 Total Blocks : 262144 Invalid Blocks : 0
Heartbeat CPU 7 instructions: 320000003 cycles: 274470291 heartbeat IPC: 0.623096 cumulative IPC: 0.626109 (Simulation time: 92 hr 21 min 25 sec) 
 Total Blocks : 262144 Invalid Blocks : 0
Heartbeat CPU 4 instructions: 320000003 cycles: 274584771 heartbeat IPC: 0.624962 cumulative IPC: 0.625732 (Simulation time: 92 hr 22 min 38 sec) 
 Total Blocks : 262144 Invalid Blocks : 0
Heartbeat CPU 0 instructions: 320000003 cycles: 274602646 heartbeat IPC: 0.626192 cumulative IPC: 0.625678 (Simulation time: 92 hr 22 min 47 sec) 
 Total Blocks : 262144 Invalid Blocks : 0
Heartbeat CPU 2 instructions: 320000003 cycles: 274758302 heartbeat IPC: 0.630832 cumulative IPC: 0.625172 (Simulation time: 92 hr 24 min 24 sec) 
 Total Blocks : 262144 Invalid Blocks : 0
Heartbeat CPU 3 instructions: 330000000 cycles: 289923320 heartbeat IPC: 0.631612 cumulative IPC: 0.627675 (Simulation time: 95 hr 1 min 45 sec) 
 Total Blocks : 262144 Invalid Blocks : 0
Heartbeat CPU 5 instructions: 330000000 cycles: 290019159 heartbeat IPC: 0.628047 cumulative IPC: 0.627386 (Simulation time: 95 hr 2 min 46 sec) 
 Total Blocks : 262144 Invalid Blocks : 0
Heartbeat CPU 1 instructions: 330000000 cycles: 290146206 heartbeat IPC: 0.623184 cumulative IPC: 0.627004 (Simulation time: 95 hr 4 min 2 sec) 
 Total Blocks : 262144 Invalid Blocks : 0
Heartbeat CPU 6 instructions: 330000000 cycles: 290402534 heartbeat IPC: 0.626225 cumulative IPC: 0.626231 (Simulation time: 95 hr 6 min 44 sec) 
 Total Blocks : 262144 Invalid Blocks : 0
Heartbeat CPU 7 instructions: 330000000 cycles: 290408186 heartbeat IPC: 0.627435 cumulative IPC: 0.626211 (Simulation time: 95 hr 6 min 47 sec) 
 Total Blocks : 262144 Invalid Blocks : 0
Heartbeat CPU 0 instructions: 330000000 cycles: 290509966 heartbeat IPC: 0.628641 cumulative IPC: 0.625905 (Simulation time: 95 hr 7 min 41 sec) 
 Total Blocks : 262144 Invalid Blocks : 0
Heartbeat CPU 4 instructions: 330000000 cycles: 290540097 heartbeat IPC: 0.62675 cumulative IPC: 0.62581 (Simulation time: 95 hr 8 min 12 sec) 
 Total Blocks : 262144 Invalid Blocks : 0
Heartbeat CPU 2 instructions: 330000000 cycles: 290670852 heartbeat IPC: 0.628435 cumulative IPC: 0.625422 (Simulation time: 95 hr 9 min 34 sec) 
 Total Blocks : 262144 Invalid Blocks : 0
Heartbeat CPU 3 instructions: 340000000 cycles: 305977678 heartbeat IPC: 0.622884 cumulative IPC: 0.62733 (Simulation time: 97 hr 41 min 5 sec) 
 Total Blocks : 262144 Invalid Blocks : 0
Heartbeat CPU 5 instructions: 340000000 cycles: 306068260 heartbeat IPC: 0.623088 cumulative IPC: 0.627077 (Simulation time: 97 hr 42 min 2 sec) 
 Total Blocks : 262144 Invalid Blocks : 0
Heartbeat CPU 1 instructions: 340000000 cycles: 306213429 heartbeat IPC: 0.622385 cumulative IPC: 0.626671 (Simulation time: 97 hr 43 min 20 sec) 
 Total Blocks : 262144 Invalid Blocks : 0
Heartbeat CPU 7 instructions: 340000000 cycles: 306472178 heartbeat IPC: 0.62251 cumulative IPC: 0.625945 (Simulation time: 97 hr 45 min 55 sec) 
 Total Blocks : 262144 Invalid Blocks : 0
Heartbeat CPU 6 instructions: 340000000 cycles: 306490295 heartbeat IPC: 0.621591 cumulative IPC: 0.625897 (Simulation time: 97 hr 46 min 17 sec) 
 Total Blocks : 262144 Invalid Blocks : 0
Heartbeat CPU 4 instructions: 340000000 cycles: 306594062 heartbeat IPC: 0.622899 cumulative IPC: 0.625601 (Simulation time: 97 hr 47 min 7 sec) 
 Total Blocks : 262144 Invalid Blocks : 0
Heartbeat CPU 0 instructions: 340000000 cycles: 306602542 heartbeat IPC: 0.621405 cumulative IPC: 0.625581 (Simulation time: 97 hr 47 min 16 sec) 
 Total Blocks : 262144 Invalid Blocks : 0
Heartbeat CPU 2 instructions: 340000000 cycles: 306812844 heartbeat IPC: 0.619502 cumulative IPC: 0.624996 (Simulation time: 97 hr 49 min 17 sec) 
 Total Blocks : 262144 Invalid Blocks : 0
Heartbeat CPU 3 instructions: 350000002 cycles: 321760183 heartbeat IPC: 0.633613 cumulative IPC: 0.627745 (Simulation time: 100 hr 19 min 33 sec) 
 Total Blocks : 262144 Invalid Blocks : 0
Heartbeat CPU 5 instructions: 350000002 cycles: 321912789 heartbeat IPC: 0.631133 cumulative IPC: 0.627346 (Simulation time: 100 hr 21 min 20 sec) 
 Total Blocks : 262144 Invalid Blocks : 0
Heartbeat CPU 1 instructions: 350000002 cycles: 322121926 heartbeat IPC: 0.628595 cumulative IPC: 0.626799 (Simulation time: 100 hr 23 min 14 sec) 
 Total Blocks : 262144 Invalid Blocks : 0
Heartbeat CPU 7 instructions: 350000002 cycles: 322367724 heartbeat IPC: 0.629107 cumulative IPC: 0.626155 (Simulation time: 100 hr 25 min 51 sec) 
 Total Blocks : 262144 Invalid Blocks : 0
Heartbeat CPU 4 instructions: 350000002 cycles: 322440661 heartbeat IPC: 0.63105 cumulative IPC: 0.625961 (Simulation time: 100 hr 26 min 40 sec) 
 Total Blocks : 262144 Invalid Blocks : 0
Heartbeat CPU 6 instructions: 350000002 cycles: 322475350 heartbeat IPC: 0.625584 cumulative IPC: 0.625876 (Simulation time: 100 hr 26 min 56 sec) 
 Total Blocks : 262144 Invalid Blocks : 0
Heartbeat CPU 0 instructions: 350000002 cycles: 322622852 heartbeat IPC: 0.624208 cumulative IPC: 0.62549 (Simulation time: 100 hr 28 min 15 sec) 
 Total Blocks : 262144 Invalid Blocks : 0
Heartbeat CPU 2 instructions: 350000002 cycles: 322668209 heartbeat IPC: 0.630701 cumulative IPC: 0.625373 (Simulation time: 100 hr 28 min 52 sec) 
 Total Blocks : 262144 Invalid Blocks : 0
Heartbeat CPU 3 instructions: 360000003 cycles: 337668883 heartbeat IPC: 0.628587 cumulative IPC: 0.627798 (Simulation time: 103 hr 3 min 4 sec) 
 Total Blocks : 262144 Invalid Blocks : 0
Heartbeat CPU 5 instructions: 360000003 cycles: 337867979 heartbeat IPC: 0.626755 cumulative IPC: 0.627309 (Simulation time: 103 hr 5 min 20 sec) 
 Total Blocks : 262144 Invalid Blocks : 0
Heartbeat CPU 1 instructions: 360000003 cycles: 338063080 heartbeat IPC: 0.627307 cumulative IPC: 0.626831 (Simulation time: 103 hr 7 min 16 sec) 
 Total Blocks : 262144 Invalid Blocks : 0
Heartbeat CPU 6 instructions: 360000003 cycles: 338267577 heartbeat IPC: 0.633223 cumulative IPC: 0.62633 (Simulation time: 103 hr 9 min 15 sec) 
 Total Blocks : 262144 Invalid Blocks : 0
Heartbeat CPU 7 instructions: 360000003 cycles: 338372720 heartbeat IPC: 0.624805 cumulative IPC: 0.626071 (Simulation time: 103 hr 10 min 21 sec) 
 Total Blocks : 262144 Invalid Blocks : 0
Heartbeat CPU 4 instructions: 360000003 cycles: 338387992 heartbeat IPC: 0.627064 cumulative IPC: 0.62603 (Simulation time: 103 hr 10 min 25 sec) 
 Total Blocks : 262144 Invalid Blocks : 0
Heartbeat CPU 0 instructions: 360000003 cycles: 338519793 heartbeat IPC: 0.629052 cumulative IPC: 0.625711 (Simulation time: 103 hr 11 min 43 sec) 
 Total Blocks : 262144 Invalid Blocks : 0
Heartbeat CPU 2 instructions: 360000003 cycles: 338863028 heartbeat IPC: 0.617481 cumulative IPC: 0.624874 (Simulation time: 103 hr 15 min 24 sec) 
 Total Blocks : 262144 Invalid Blocks : 0
Heartbeat CPU 3 instructions: 370000000 cycles: 353645283 heartbeat IPC: 0.625923 cumulative IPC: 0.627687 (Simulation time: 105 hr 44 min 52 sec) 
 Total Blocks : 262144 Invalid Blocks : 0
Heartbeat CPU 5 instructions: 370000002 cycles: 353837120 heartbeat IPC: 0.626208 cumulative IPC: 0.627244 (Simulation time: 105 hr 46 min 56 sec) 
 Total Blocks : 262144 Invalid Blocks : 0
Heartbeat CPU 1 instructions: 370000000 cycles: 353914731 heartbeat IPC: 0.630849 cumulative IPC: 0.627066 (Simulation time: 105 hr 47 min 46 sec) 
 Total Blocks : 262144 Invalid Blocks : 0
Heartbeat CPU 6 instructions: 370000000 cycles: 354286319 heartbeat IPC: 0.624269 cumulative IPC: 0.626209 (Simulation time: 105 hr 51 min 46 sec) 
 Total Blocks : 262144 Invalid Blocks : 0
Heartbeat CPU 7 instructions: 370000000 cycles: 354344123 heartbeat IPC: 0.626119 cumulative IPC: 0.626073 (Simulation time: 105 hr 52 min 14 sec) 
 Total Blocks : 262144 Invalid Blocks : 0
Heartbeat CPU 0 instructions: 370000000 cycles: 354418007 heartbeat IPC: 0.629001 cumulative IPC: 0.625904 (Simulation time: 105 hr 53 min 9 sec) 
 Total Blocks : 262144 Invalid Blocks : 0
Heartbeat CPU 4 instructions: 370000002 cycles: 354444097 heartbeat IPC: 0.622816 cumulative IPC: 0.62584 (Simulation time: 105 hr 53 min 16 sec) 
 Total Blocks : 262144 Invalid Blocks : 0
Heartbeat CPU 2 instructions: 370000002 cycles: 354795790 heartbeat IPC: 0.627638 cumulative IPC: 0.625036 (Simulation time: 105 hr 56 min 58 sec) 
 Total Blocks : 262144 Invalid Blocks : 0
Heartbeat CPU 3 instructions: 380000003 cycles: 369574411 heartbeat IPC: 0.627781 cumulative IPC: 0.627692 (Simulation time: 108 hr 30 min 2 sec) 
 Total Blocks : 262144 Invalid Blocks : 0
Heartbeat CPU 5 instructions: 380000003 cycles: 369754466 heartbeat IPC: 0.628245 cumulative IPC: 0.6273 (Simulation time: 108 hr 31 min 53 sec) 
 Total Blocks : 262144 Invalid Blocks : 0
Heartbeat CPU 1 instructions: 380000003 cycles: 369823767 heartbeat IPC: 0.628574 cumulative IPC: 0.62715 (Simulation time: 108 hr 32 min 34 sec) 
 Total Blocks : 262144 Invalid Blocks : 0
Heartbeat CPU 6 instructions: 380000003 cycles: 370143471 heartbeat IPC: 0.63063 cumulative IPC: 0.626453 (Simulation time: 108 hr 36 min 7 sec) 
 Total Blocks : 262144 Invalid Blocks : 0
Heartbeat CPU 0 instructions: 380000003 cycles: 370350538 heartbeat IPC: 0.627647 cumulative IPC: 0.626 (Simulation time: 108 hr 38 min 5 sec) 
 Total Blocks : 262144 Invalid Blocks : 0
Heartbeat CPU 7 instructions: 380000003 cycles: 370372857 heartbeat IPC: 0.62388 cumulative IPC: 0.625951 (Simulation time: 108 hr 38 min 24 sec) 
 Total Blocks : 262144 Invalid Blocks : 0
Heartbeat CPU 4 instructions: 380000003 cycles: 370459501 heartbeat IPC: 0.624399 cumulative IPC: 0.62576 (Simulation time: 108 hr 39 min 15 sec) 
 Total Blocks : 262144 Invalid Blocks : 0
Heartbeat CPU 2 instructions: 380000003 cycles: 370892717 heartbeat IPC: 0.621237 cumulative IPC: 0.624823 (Simulation time: 108 hr 43 min 50 sec) 
 Total Blocks : 262144 Invalid Blocks : 0
Heartbeat CPU 3 instructions: 390000001 cycles: 385656745 heartbeat IPC: 0.6218 cumulative IPC: 0.62738 (Simulation time: 110 hr 57 min 13 sec) 
 Total Blocks : 262144 Invalid Blocks : 0
Heartbeat CPU 5 instructions: 390000001 cycles: 385804498 heartbeat IPC: 0.623052 cumulative IPC: 0.627075 (Simulation time: 110 hr 58 min 32 sec) 
 Total Blocks : 262144 Invalid Blocks : 0
Heartbeat CPU 1 instructions: 390000001 cycles: 385912677 heartbeat IPC: 0.621546 cumulative IPC: 0.626852 (Simulation time: 110 hr 59 min 28 sec) 
 Total Blocks : 262144 Invalid Blocks : 0
Heartbeat CPU 6 instructions: 390000001 cycles: 386169061 heartbeat IPC: 0.624002 cumulative IPC: 0.626323 (Simulation time: 111 hr 1 min 53 sec) 
 Total Blocks : 262144 Invalid Blocks : 0
Heartbeat CPU 4 instructions: 390000001 cycles: 386420795 heartbeat IPC: 0.626516 cumulative IPC: 0.6258 (Simulation time: 111 hr 4 min 11 sec) 
 Total Blocks : 262144 Invalid Blocks : 0
Heartbeat CPU 0 instructions: 390000001 cycles: 386556346 heartbeat IPC: 0.617063 cumulative IPC: 0.625523 (Simulation time: 111 hr 5 min 21 sec) 
 Total Blocks : 262144 Invalid Blocks : 0
Heartbeat CPU 7 instructions: 390000001 cycles: 386566590 heartbeat IPC: 0.617523 cumulative IPC: 0.625502 (Simulation time: 111 hr 5 min 24 sec) 
 Total Blocks : 262144 Invalid Blocks : 0
Heartbeat CPU 2 instructions: 390000001 cycles: 387013996 heartbeat IPC: 0.620298 cumulative IPC: 0.624583 (Simulation time: 111 hr 9 min 35 sec) 
 Total Blocks : 262144 Invalid Blocks : 0
Heartbeat CPU 3 instructions: 400000000 cycles: 401708957 heartbeat IPC: 0.622967 cumulative IPC: 0.627157 (Simulation time: 113 hr 21 min 59 sec) 
 Total Blocks : 262144 Invalid Blocks : 0
Finished CPU 3 instructions: 200000003 cycles: 318898238 cumulative IPC: 0.627159 (Simulation time: 113 hr 22 min 2 sec) 
Heartbeat CPU 1 instructions: 400000002 cycles: 401958767 heartbeat IPC: 0.623205 cumulative IPC: 0.626669 (Simulation time: 113 hr 24 min 27 sec) 
 Total Blocks : 262144 Invalid Blocks : 0
Finished CPU 1 instructions: 200000000 cycles: 319147594 cumulative IPC: 0.626669 (Simulation time: 113 hr 24 min 27 sec) 
Heartbeat CPU 5 instructions: 400000002 cycles: 401978914 heartbeat IPC: 0.61826 cumulative IPC: 0.626628 (Simulation time: 113 hr 24 min 39 sec) 
 Total Blocks : 262144 Invalid Blocks : 0
Finished CPU 5 instructions: 200000001 cycles: 319167970 cumulative IPC: 0.626629 (Simulation time: 113 hr 24 min 40 sec) 
Heartbeat CPU 6 instructions: 400000002 cycles: 402115092 heartbeat IPC: 0.627115 cumulative IPC: 0.626363 (Simulation time: 113 hr 25 min 49 sec) 
 Total Blocks : 262144 Invalid Blocks : 0
Finished CPU 6 instructions: 200000003 cycles: 319303700 cumulative IPC: 0.626363 (Simulation time: 113 hr 25 min 50 sec) 
Heartbeat CPU 4 instructions: 400000000 cycles: 402452967 heartbeat IPC: 0.623746 cumulative IPC: 0.625697 (Simulation time: 113 hr 28 min 55 sec) 
 Total Blocks : 262144 Invalid Blocks : 0
Finished CPU 4 instructions: 200000000 cycles: 319642441 cumulative IPC: 0.625699 (Simulation time: 113 hr 28 min 56 sec) 
Heartbeat CPU 0 instructions: 400000002 cycles: 402531765 heartbeat IPC: 0.625962 cumulative IPC: 0.625545 (Simulation time: 113 hr 29 min 30 sec) 
 Total Blocks : 262144 Invalid Blocks : 0
Finished CPU 0 instructions: 200000001 cycles: 319720643 cumulative IPC: 0.625546 (Simulation time: 113 hr 29 min 31 sec) 
Heartbeat CPU 7 instructions: 400000002 cycles: 402629906 heartbeat IPC: 0.622537 cumulative IPC: 0.625353 (Simulation time: 113 hr 30 min 28 sec) 
 Total Blocks : 262144 Invalid Blocks : 0
Finished CPU 7 instructions: 200000001 cycles: 319819285 cumulative IPC: 0.625353 (Simulation time: 113 hr 30 min 29 sec) 
Heartbeat CPU 2 instructions: 400000002 cycles: 403187537 heartbeat IPC: 0.618294 cumulative IPC: 0.624266 (Simulation time: 113 hr 35 min 25 sec) 
 Total Blocks : 262144 Invalid Blocks : 0
Finished CPU 2 instructions: 200000001 cycles: 320376195 cumulative IPC: 0.624266 (Simulation time: 113 hr 35 min 25 sec) 

CPU 0 Branch Prediction Accuracy: 80.621% MPKI: 1.63559 Average ROB Occupancy at Mispredict: 309.194

CPU 1 Branch Prediction Accuracy: 80.621% MPKI: 1.63559 Average ROB Occupancy at Mispredict: 309.182

CPU 2 Branch Prediction Accuracy: 80.621% MPKI: 1.63559 Average ROB Occupancy at Mispredict: 309.174

CPU 3 Branch Prediction Accuracy: 80.621% MPKI: 1.63558 Average ROB Occupancy at Mispredict: 309.167

CPU 4 Branch Prediction Accuracy: 80.6211% MPKI: 1.63558 Average ROB Occupancy at Mispredict: 309.177

CPU 5 Branch Prediction Accuracy: 80.621% MPKI: 1.63559 Average ROB Occupancy at Mispredict: 309.182

CPU 6 Branch Prediction Accuracy: 80.6209% MPKI: 1.6356 Average ROB Occupancy at Mispredict: 309.188

CPU 7 Branch Prediction Accuracy: 80.621% MPKI: 1.63559 Average ROB Occupancy at Mispredict: 309.198

ChampSim completed all CPUs

Total Simulation Statistics (not including warmup)

CPU 0 cumulative IPC: 0.625534 instructions: 200406108 cycles: 320376195
ITLB TOTAL     ACCESS: 24561162  HIT: 24561162  MISS:     0  HIT %:   100  MISS %:     0  AVERAGE MISS PENALTY: 0
ITLB LOAD      ACCESS: 24561162  HIT: 24561162  MISS:     0  HIT %:   100  MISS %:     0  AVERAGE MISS PENALTY: 0
ITLB RFO       ACCESS:     0  HIT:     0  MISS:     0  HIT %:     0  MISS %:     0  AVERAGE MISS PENALTY: 0
ITLB PREFETCH  ACCESS:     0  HIT:     0  MISS:     0  HIT %:     0  MISS %:     0  AVERAGE MISS PENALTY: 0
ITLB WRITEBACK ACCESS:     0  HIT:     0  MISS:     0  HIT %:     0  MISS %:     0  AVERAGE MISS PENALTY: 0

DTLB TOTAL     ACCESS: 47775291  HIT: 47462907  MISS: 312384  HIT %: 99.3461  MISS %: 0.653861  AVERAGE MISS PENALTY: 45.179
DTLB LOAD      ACCESS: 30363673  HIT: 30163482  MISS: 200191  HIT %: 99.3407  MISS %: 0.659311  AVERAGE MISS PENALTY: 29.0748
DTLB RFO       ACCESS: 17411618  HIT: 17299425  MISS: 112193  HIT %: 99.3556  MISS %: 0.644357  AVERAGE MISS PENALTY: 73.9145
DTLB PREFETCH  ACCESS:     0  HIT:     0  MISS:     0  HIT %:     0  MISS %:     0  AVERAGE MISS PENALTY: 0
DTLB WRITEBACK ACCESS:     0  HIT:     0  MISS:     0  HIT %:     0  MISS %:     0  AVERAGE MISS PENALTY: 0

STLB TOTAL     ACCESS: 312384  HIT: 269700  MISS: 42684  HIT %: 86.336  MISS %: 13.664  AVERAGE MISS PENALTY: 100
STLB LOAD      ACCESS: 200191  HIT: 176148  MISS: 24043  HIT %: 87.99  MISS %: 12.01  AVERAGE MISS PENALTY: 100
STLB RFO       ACCESS: 112193  HIT: 93552  MISS: 18641  HIT %: 83.3849  MISS %: 16.6151  AVERAGE MISS PENALTY: 100
STLB PREFETCH  ACCESS:     0  HIT:     0  MISS:     0  HIT %:     0  MISS %:     0  AVERAGE MISS PENALTY: 0
STLB WRITEBACK ACCESS:     0  HIT:     0  MISS:     0  HIT %:     0  MISS %:     0  AVERAGE MISS PENALTY: 0

L1D TOTAL     ACCESS: 60449038  HIT: 57302554  MISS: 3146484  HIT %: 94.7948  MISS %: 5.20518  AVERAGE MISS PENALTY: 8.18392e+06
L1D LOAD      ACCESS: 32068233  HIT: 31839301  MISS: 228932  HIT %: 99.2861  MISS %: 0.71389  AVERAGE MISS PENALTY: 1.12467e+08
L1D RFO       ACCESS: 24977262  HIT: 23781802  MISS: 1195460  HIT %: 95.2138  MISS %: 4.78619  AVERAGE MISS PENALTY: 2186.03
L1D PREFETCH  ACCESS: 3403543  HIT: 1681451  MISS: 1722092  HIT %: 49.403  MISS %: 50.597  AVERAGE MISS PENALTY: 395.37
L1D WRITEBACK ACCESS:     0  HIT:     0  MISS:     0  HIT %:     0  MISS %:     0  AVERAGE MISS PENALTY: 0

L1I TOTAL     ACCESS: 36164536  HIT: 36164536  MISS:     0  HIT %:   100  MISS %:     0  AVERAGE MISS PENALTY: 0
L1I LOAD      ACCESS: 36164536  HIT: 36164536  MISS:     0  HIT %:   100  MISS %:     0  AVERAGE MISS PENALTY: 0
L1I RFO       ACCESS:     0  HIT:     0  MISS:     0  HIT %:     0  MISS %:     0  AVERAGE MISS PENALTY: 0
L1I PREFETCH  ACCESS:     0  HIT:     0  MISS:     0  HIT %:     0  MISS %:     0  AVERAGE MISS PENALTY: 0
L1I WRITEBACK ACCESS:     0  HIT:     0  MISS:     0  HIT %:     0  MISS %:     0  AVERAGE MISS PENALTY: 0

L2C TOTAL     ACCESS: 6158544  HIT: 3232247  MISS: 2926297  HIT %: 52.4839  MISS %: 47.5161  AVERAGE MISS PENALTY: 9.00149e+06
L2C LOAD      ACCESS: 227775  HIT: 88651  MISS: 139124  HIT %: 38.9204  MISS %: 61.0796  AVERAGE MISS PENALTY: 1.89296e+08
L2C RFO       ACCESS: 1194374  HIT:  1197  MISS: 1193177  HIT %: 0.10022  MISS %: 99.8998  AVERAGE MISS PENALTY: 2172.98
L2C PREFETCH  ACCESS: 3535190  HIT: 1941624  MISS: 1593566  HIT %: 54.9228  MISS %: 45.0772  AVERAGE MISS PENALTY: 1759.22
L2C WRITEBACK ACCESS: 1201205  HIT: 1200775  MISS:   430  HIT %: 99.9642  MISS %: 0.0357974  AVERAGE MISS PENALTY: 0


LLC0 TOTAL     ACCESS: 514996  HIT: 89940  MISS: 425056  HIT %: 17.4642  MISS %: 82.5358  AVERAGE MISS PENALTY: 1419.68
LLC0 LOAD      ACCESS: 27531  HIT:  2166  MISS: 25365  HIT %: 7.86749  MISS %: 92.1325  AVERAGE MISS PENALTY: 1504.01
LLC0 RFO       ACCESS: 149142  HIT:     0  MISS: 149142  HIT %:     0  MISS %:   100  AVERAGE MISS PENALTY: 1914.1
LLC0 PREFETCH  ACCESS: 188936  HIT: 11972  MISS: 176964  HIT %: 6.33654  MISS %: 93.6635  AVERAGE MISS PENALTY: 1581.22
LLC0 WRITEBACK ACCESS: 149387  HIT: 75802  MISS: 73585  HIT %: 50.742  MISS %: 49.258  AVERAGE MISS PENALTY: 0

LLC1 TOTAL     ACCESS: 515147  HIT: 104585  MISS: 410562  HIT %: 20.302  MISS %: 79.698  AVERAGE MISS PENALTY: 1514.79
LLC1 LOAD      ACCESS:   533  HIT:   145  MISS:   388  HIT %: 27.2045  MISS %: 72.7955  AVERAGE MISS PENALTY: 1757.38
LLC1 RFO       ACCESS: 149149  HIT:     0  MISS: 149149  HIT %:     0  MISS %:   100  AVERAGE MISS PENALTY: 2003.95
LLC1 PREFETCH  ACCESS: 216193  HIT: 15146  MISS: 201047  HIT %: 7.00578  MISS %: 92.9942  AVERAGE MISS PENALTY: 1603.34
LLC1 WRITEBACK ACCESS: 149272  HIT: 89294  MISS: 59978  HIT %: 59.8197  MISS %: 40.1803  AVERAGE MISS PENALTY: 0

LLC2 TOTAL     ACCESS: 515173  HIT: 116370  MISS: 398803  HIT %: 22.5885  MISS %: 77.4115  AVERAGE MISS PENALTY: 1527.83
LLC2 LOAD      ACCESS:   436  HIT:    70  MISS:   366  HIT %: 16.055  MISS %: 83.945  AVERAGE MISS PENALTY: 1780.13
LLC2 RFO       ACCESS: 149149  HIT:     0  MISS: 149149  HIT %:     0  MISS %:   100  AVERAGE MISS PENALTY: 1914.32
LLC2 PREFETCH  ACCESS: 216303  HIT: 16209  MISS: 200094  HIT %: 7.49365  MISS %: 92.5063  AVERAGE MISS PENALTY: 1614.89
LLC2 WRITEBACK ACCESS: 149285  HIT: 100091  MISS: 49194  HIT %: 67.0469  MISS %: 32.9531  AVERAGE MISS PENALTY: 0

LLC3 TOTAL     ACCESS: 515009  HIT: 121119  MISS: 393890  HIT %: 23.5178  MISS %: 76.4822  AVERAGE MISS PENALTY: 1570.76
LLC3 LOAD      ACCESS:   455  HIT:    24  MISS:   431  HIT %: 5.27473  MISS %: 94.7253  AVERAGE MISS PENALTY: 1945.51
LLC3 RFO       ACCESS: 149149  HIT:     0  MISS: 149149  HIT %:     0  MISS %:   100  AVERAGE MISS PENALTY: 1955.06
LLC3 PREFETCH  ACCESS: 216011  HIT: 16859  MISS: 199152  HIT %: 7.8047  MISS %: 92.1953  AVERAGE MISS PENALTY: 1638.32
LLC3 WRITEBACK ACCESS: 149394  HIT: 104236  MISS: 45158  HIT %: 69.7725  MISS %: 30.2275  AVERAGE MISS PENALTY: 0

LLC4 TOTAL     ACCESS: 515135  HIT: 121605  MISS: 393530  HIT %: 23.6064  MISS %: 76.3936  AVERAGE MISS PENALTY: 1521.54
LLC4 LOAD      ACCESS:   751  HIT:   118  MISS:   633  HIT %: 15.7124  MISS %: 84.2876  AVERAGE MISS PENALTY: 1804.19
LLC4 RFO       ACCESS: 149149  HIT:     0  MISS: 149149  HIT %:     0  MISS %:   100  AVERAGE MISS PENALTY: 1916.49
LLC4 PREFETCH  ACCESS: 215858  HIT: 16928  MISS: 198930  HIT %: 7.84219  MISS %: 92.1578  AVERAGE MISS PENALTY: 1567.32
LLC4 WRITEBACK ACCESS: 149377  HIT: 104559  MISS: 44818  HIT %: 69.9967  MISS %: 30.0033  AVERAGE MISS PENALTY: 0

LLC5 TOTAL     ACCESS: 515031  HIT: 121316  MISS: 393715  HIT %: 23.5551  MISS %: 76.4449  AVERAGE MISS PENALTY: 1532.75
LLC5 LOAD      ACCESS:   775  HIT:   106  MISS:   669  HIT %: 13.6774  MISS %: 86.3226  AVERAGE MISS PENALTY: 1792.95
LLC5 RFO       ACCESS: 149149  HIT:     0  MISS: 149149  HIT %:     0  MISS %:   100  AVERAGE MISS PENALTY: 1919.88
LLC5 PREFETCH  ACCESS: 215821  HIT: 16750  MISS: 199071  HIT %: 7.76106  MISS %: 92.2389  AVERAGE MISS PENALTY: 1586.97
LLC5 WRITEBACK ACCESS: 149286  HIT: 104460  MISS: 44826  HIT %: 69.9731  MISS %: 30.0269  AVERAGE MISS PENALTY: 0

LLC6 TOTAL     ACCESS: 515119  HIT: 117449  MISS: 397670  HIT %: 22.8004  MISS %: 77.1996  AVERAGE MISS PENALTY: 1349.97
LLC6 LOAD      ACCESS:  9438  HIT:   522  MISS:  8916  HIT %: 5.53083  MISS %: 94.4692  AVERAGE MISS PENALTY: 1794.73
LLC6 RFO       ACCESS: 149148  HIT:     0  MISS: 149148  HIT %:     0  MISS %:   100  AVERAGE MISS PENALTY: 1728.83
LLC6 PREFETCH  ACCESS: 207174  HIT: 15526  MISS: 191648  HIT %: 7.49418  MISS %: 92.5058  AVERAGE MISS PENALTY: 1372.25
LLC6 WRITEBACK ACCESS: 149359  HIT: 101401  MISS: 47958  HIT %: 67.8908  MISS %: 32.1092  AVERAGE MISS PENALTY: 0

LLC7 TOTAL     ACCESS: 514938  HIT: 109251  MISS: 405687  HIT %: 21.2163  MISS %: 78.7837  AVERAGE MISS PENALTY: 1319.84
LLC7 LOAD      ACCESS: 11789  HIT:   533  MISS: 11256  HIT %: 4.52116  MISS %: 95.4788  AVERAGE MISS PENALTY: 1798.2
LLC7 RFO       ACCESS: 149142  HIT:     0  MISS: 149142  HIT %:     0  MISS %:   100  AVERAGE MISS PENALTY: 1717.03
LLC7 PREFETCH  ACCESS: 204687  HIT: 14686  MISS: 190001  HIT %: 7.17486  MISS %: 92.8251  AVERAGE MISS PENALTY: 1363.79
LLC7 WRITEBACK ACCESS: 149320  HIT: 94032  MISS: 55288  HIT %: 62.9735  MISS %: 37.0265  AVERAGE MISS PENALTY: 0

Total Rob stall cycles : 	253724547
Total Load Rob Stall cycles : 	176993584
Average Rob Stall cycles : 	 16
Average Load Rob Stall cycles : 	 87

CPU 1 cumulative IPC: 0.626646 instructions: 200762609 cycles: 320376195
ITLB TOTAL     ACCESS: 24604863  HIT: 24604863  MISS:     0  HIT %:   100  MISS %:     0  AVERAGE MISS PENALTY: 0
ITLB LOAD      ACCESS: 24604863  HIT: 24604863  MISS:     0  HIT %:   100  MISS %:     0  AVERAGE MISS PENALTY: 0
ITLB RFO       ACCESS:     0  HIT:     0  MISS:     0  HIT %:     0  MISS %:     0  AVERAGE MISS PENALTY: 0
ITLB PREFETCH  ACCESS:     0  HIT:     0  MISS:     0  HIT %:     0  MISS %:     0  AVERAGE MISS PENALTY: 0
ITLB WRITEBACK ACCESS:     0  HIT:     0  MISS:     0  HIT %:     0  MISS %:     0  AVERAGE MISS PENALTY: 0

DTLB TOTAL     ACCESS: 47859749  HIT: 47546456  MISS: 313293  HIT %: 99.3454  MISS %: 0.654606  AVERAGE MISS PENALTY: 45.0759
DTLB LOAD      ACCESS: 30417355  HIT: 30216695  MISS: 200660  HIT %: 99.3403  MISS %: 0.659689  AVERAGE MISS PENALTY: 29.0548
DTLB RFO       ACCESS: 17442394  HIT: 17329761  MISS: 112633  HIT %: 99.3543  MISS %: 0.645743  AVERAGE MISS PENALTY: 73.6182
DTLB PREFETCH  ACCESS:     0  HIT:     0  MISS:     0  HIT %:     0  MISS %:     0  AVERAGE MISS PENALTY: 0
DTLB WRITEBACK ACCESS:     0  HIT:     0  MISS:     0  HIT %:     0  MISS %:     0  AVERAGE MISS PENALTY: 0

STLB TOTAL     ACCESS: 313293  HIT: 270529  MISS: 42764  HIT %: 86.3502  MISS %: 13.6498  AVERAGE MISS PENALTY: 100
STLB LOAD      ACCESS: 200660  HIT: 176572  MISS: 24088  HIT %: 87.9956  MISS %: 12.0044  AVERAGE MISS PENALTY: 100
STLB RFO       ACCESS: 112633  HIT: 93957  MISS: 18676  HIT %: 83.4187  MISS %: 16.5813  AVERAGE MISS PENALTY: 100
STLB PREFETCH  ACCESS:     0  HIT:     0  MISS:     0  HIT %:     0  MISS %:     0  AVERAGE MISS PENALTY: 0
STLB WRITEBACK ACCESS:     0  HIT:     0  MISS:     0  HIT %:     0  MISS %:     0  AVERAGE MISS PENALTY: 0

L1D TOTAL     ACCESS: 60576230  HIT: 57424245  MISS: 3151985  HIT %: 94.7967  MISS %: 5.20334  AVERAGE MISS PENALTY: 8.18614e+06
L1D LOAD      ACCESS: 32125284  HIT: 31896650  MISS: 228634  HIT %: 99.2883  MISS %: 0.711695  AVERAGE MISS PENALTY: 1.12841e+08
L1D RFO       ACCESS: 25035929  HIT: 23838446  MISS: 1197483  HIT %: 95.2169  MISS %: 4.78306  AVERAGE MISS PENALTY: 2182.64
L1D PREFETCH  ACCESS: 3415017  HIT: 1689149  MISS: 1725868  HIT %: 49.4624  MISS %: 50.5376  AVERAGE MISS PENALTY: 393.981
L1D WRITEBACK ACCESS:     0  HIT:     0  MISS:     0  HIT %:     0  MISS %:     0  AVERAGE MISS PENALTY: 0

L1I TOTAL     ACCESS: 36229837  HIT: 36229837  MISS:     0  HIT %:   100  MISS %:     0  AVERAGE MISS PENALTY: 0
L1I LOAD      ACCESS: 36229837  HIT: 36229837  MISS:     0  HIT %:   100  MISS %:     0  AVERAGE MISS PENALTY: 0
L1I RFO       ACCESS:     0  HIT:     0  MISS:     0  HIT %:     0  MISS %:     0  AVERAGE MISS PENALTY: 0
L1I PREFETCH  ACCESS:     0  HIT:     0  MISS:     0  HIT %:     0  MISS %:     0  AVERAGE MISS PENALTY: 0
L1I WRITEBACK ACCESS:     0  HIT:     0  MISS:     0  HIT %:     0  MISS %:     0  AVERAGE MISS PENALTY: 0

L2C TOTAL     ACCESS: 6173176  HIT: 3241940  MISS: 2931236  HIT %: 52.5166  MISS %: 47.4834  AVERAGE MISS PENALTY: 9.0063e+06
L2C LOAD      ACCESS: 227543  HIT: 88413  MISS: 139130  HIT %: 38.8555  MISS %: 61.1445  AVERAGE MISS PENALTY: 1.89709e+08
L2C RFO       ACCESS: 1196473  HIT:  1181  MISS: 1195292  HIT %: 0.0987068  MISS %: 99.9013  AVERAGE MISS PENALTY: 2169.39
L2C PREFETCH  ACCESS: 3545818  HIT: 1949427  MISS: 1596391  HIT %: 54.9782  MISS %: 45.0218  AVERAGE MISS PENALTY: 1758.29
L2C WRITEBACK ACCESS: 1203342  HIT: 1202919  MISS:   423  HIT %: 99.9648  MISS %: 0.0351521  AVERAGE MISS PENALTY: 0


LLC0 TOTAL     ACCESS: 515825  HIT: 90395  MISS: 425430  HIT %: 17.5244  MISS %: 82.4756  AVERAGE MISS PENALTY: 1419.97
LLC0 LOAD      ACCESS: 27528  HIT:  2199  MISS: 25329  HIT %: 7.98823  MISS %: 92.0118  AVERAGE MISS PENALTY: 1477.95
LLC0 RFO       ACCESS: 149408  HIT:     0  MISS: 149408  HIT %:     0  MISS %:   100  AVERAGE MISS PENALTY: 1914.35
LLC0 PREFETCH  ACCESS: 189296  HIT: 11957  MISS: 177339  HIT %: 6.31656  MISS %: 93.6834  AVERAGE MISS PENALTY: 1582.51
LLC0 WRITEBACK ACCESS: 149593  HIT: 76239  MISS: 73354  HIT %: 50.9643  MISS %: 49.0357  AVERAGE MISS PENALTY: 0

LLC1 TOTAL     ACCESS: 515976  HIT: 104131  MISS: 411845  HIT %: 20.1814  MISS %: 79.8186  AVERAGE MISS PENALTY: 1509.96
LLC1 LOAD      ACCESS:   497  HIT:   137  MISS:   360  HIT %: 27.5654  MISS %: 72.4346  AVERAGE MISS PENALTY: 1662.76
LLC1 RFO       ACCESS: 149415  HIT:     0  MISS: 149415  HIT %:     0  MISS %:   100  AVERAGE MISS PENALTY: 1994.68
LLC1 PREFETCH  ACCESS: 216563  HIT: 14892  MISS: 201671  HIT %: 6.87652  MISS %: 93.1235  AVERAGE MISS PENALTY: 1602.78
LLC1 WRITEBACK ACCESS: 149501  HIT: 89102  MISS: 60399  HIT %: 59.5996  MISS %: 40.4004  AVERAGE MISS PENALTY: 0

LLC2 TOTAL     ACCESS: 516012  HIT: 116679  MISS: 399333  HIT %: 22.6117  MISS %: 77.3883  AVERAGE MISS PENALTY: 1526.6
LLC2 LOAD      ACCESS:   441  HIT:    67  MISS:   374  HIT %: 15.1927  MISS %: 84.8073  AVERAGE MISS PENALTY: 1685.3
LLC2 RFO       ACCESS: 149415  HIT:     0  MISS: 149415  HIT %:     0  MISS %:   100  AVERAGE MISS PENALTY: 1913.32
LLC2 PREFETCH  ACCESS: 216643  HIT: 15898  MISS: 200745  HIT %: 7.33834  MISS %: 92.6617  AVERAGE MISS PENALTY: 1609.56
LLC2 WRITEBACK ACCESS: 149513  HIT: 100714  MISS: 48799  HIT %: 67.3614  MISS %: 32.6386  AVERAGE MISS PENALTY: 0

LLC3 TOTAL     ACCESS: 515895  HIT: 121408  MISS: 394487  HIT %: 23.5335  MISS %: 76.4665  AVERAGE MISS PENALTY: 1565.03
LLC3 LOAD      ACCESS:   481  HIT:    35  MISS:   446  HIT %: 7.27651  MISS %: 92.7235  AVERAGE MISS PENALTY: 1888.11
LLC3 RFO       ACCESS: 149415  HIT:     0  MISS: 149415  HIT %:     0  MISS %:   100  AVERAGE MISS PENALTY: 1948.69
[...]
 TIMELY PREFETCHES:        192 LATE PREFETCHES: 0 DROPPED PREFETCHES: 0
LLC1 AVERAGE MISS LATENCY: 1513.34 cycles
LLC2 TOTAL     ACCESS: 513846  HIT: 115884  MISS: 397962  HIT %: 22.5523  MISS %: 77.4477  AVERAGE MISS PENALTY: 1528.83
LLC2 LOAD      ACCESS:   432  HIT:    67  MISS:   365  HIT %: 15.5093  MISS %: 84.4907  AVERAGE MISS PENALTY: 1737.7
LLC2 RFO       ACCESS: 148848  HIT:     0  MISS: 148848  HIT %:     0  MISS %:   100  AVERAGE MISS PENALTY: 1929.56
LLC2 PREFETCH  ACCESS: 215691  HIT: 15918  MISS: 199773  HIT %:  7.38  MISS %: 92.62  AVERAGE MISS PENALTY: 1604.67
LLC2 WRITEBACK ACCESS: 148875  HIT: 99899  MISS: 48976  HIT %: 67.1026  MISS %: 32.8974  AVERAGE MISS PENALTY: 0
LLC2 PREFETCH  REQUESTED:     0  ISSUED:     0  USEFUL:   162  USELESS: 1601363
 USEFUL LOAD PREFETCHES:        162 PREFETCH ISSUED TO LOWER LEVEL:  757219057  ACCURACY: 2.13941e-05
 TIMELY PREFETCHES:        162 LATE PREFETCHES: 0 DROPPED PREFETCHES: 0
LLC2 AVERAGE MISS LATENCY: 1528.83 cycles
LLC3 TOTAL     ACCESS: 513741  HIT: 120524  MISS: 393217  HIT %: 23.4601  MISS %: 76.5399  AVERAGE MISS PENALTY: 1573.28
LLC3 LOAD      ACCESS:   445  HIT:    28  MISS:   417  HIT %: 6.29213  MISS %: 93.7079  AVERAGE MISS PENALTY: 1681.54
LLC3 RFO       ACCESS: 148848  HIT:     0  MISS: 148848  HIT %:     0  MISS %:   100  AVERAGE MISS PENALTY: 1969.09
LLC3 PREFETCH  ACCESS: 215451  HIT: 16538  MISS: 198913  HIT %: 7.67599  MISS %: 92.324  AVERAGE MISS PENALTY: 1633.1
LLC3 WRITEBACK ACCESS: 148997  HIT: 103958  MISS: 45039  HIT %: 69.7719  MISS %: 30.2281  AVERAGE MISS PENALTY: 0
LLC3 PREFETCH  REQUESTED:     0  ISSUED:     0  USEFUL:   242  USELESS: 1594937
 USEFUL LOAD PREFETCHES:        242 PREFETCH ISSUED TO LOWER LEVEL:  806552469  ACCURACY: 3.00042e-05
 TIMELY PREFETCHES:        242 LATE PREFETCHES: 0 DROPPED PREFETCHES: 0
LLC3 AVERAGE MISS LATENCY: 1573.28 cycles
LLC4 TOTAL     ACCESS: 513853  HIT: 121274  MISS: 392579  HIT %: 23.6009  MISS %: 76.3991  AVERAGE MISS PENALTY: 1519.36
LLC4 LOAD      ACCESS:   750  HIT:   139  MISS:   611  HIT %: 18.5333  MISS %: 81.4667  AVERAGE MISS PENALTY: 1738.59
LLC4 RFO       ACCESS: 148848  HIT:     0  MISS: 148848  HIT %:     0  MISS %:   100  AVERAGE MISS PENALTY: 1914.8
LLC4 PREFETCH  ACCESS: 215284  HIT: 16523  MISS: 198761  HIT %: 7.67498  MISS %: 92.325  AVERAGE MISS PENALTY: 1561.65
LLC4 WRITEBACK ACCESS: 148971  HIT: 104612  MISS: 44359  HIT %: 70.2231  MISS %: 29.7769  AVERAGE MISS PENALTY: 0
LLC4 PREFETCH  REQUESTED:     0  ISSUED:     0  USEFUL:   486  USELESS: 1592276
 USEFUL LOAD PREFETCHES:        486 PREFETCH ISSUED TO LOWER LEVEL: 1009208854  ACCURACY: 4.81565e-05
 TIMELY PREFETCHES:        486 LATE PREFETCHES: 0 DROPPED PREFETCHES: 0
LLC4 AVERAGE MISS LATENCY: 1519.36 cycles
LLC5 TOTAL     ACCESS: 513748  HIT: 121011  MISS: 392737  HIT %: 23.5545  MISS %: 76.4455  AVERAGE MISS PENALTY: 1540.33
LLC5 LOAD      ACCESS:   737  HIT:   111  MISS:   626  HIT %: 15.0611  MISS %: 84.9389  AVERAGE MISS PENALTY: 1758.66
LLC5 RFO       ACCESS: 148848  HIT:     0  MISS: 148848  HIT %:     0  MISS %:   100  AVERAGE MISS PENALTY: 1933.96
LLC5 PREFETCH  ACCESS: 215293  HIT: 16535  MISS: 198758  HIT %: 7.68023  MISS %: 92.3198  AVERAGE MISS PENALTY: 1589.77
LLC5 WRITEBACK ACCESS: 148870  HIT: 104365  MISS: 44505  HIT %: 70.1048  MISS %: 29.8952  AVERAGE MISS PENALTY: 0
LLC5 PREFETCH  REQUESTED:     0  ISSUED:     0  USEFUL:   482  USELESS: 1593461
 USEFUL LOAD PREFETCHES:        482 PREFETCH ISSUED TO LOWER LEVEL: 1103299179  ACCURACY: 4.36872e-05
 TIMELY PREFETCHES:        482 LATE PREFETCHES: 0 DROPPED PREFETCHES: 0
LLC5 AVERAGE MISS LATENCY: 1540.33 cycles
LLC6 TOTAL     ACCESS: 513879  HIT: 116940  MISS: 396939  HIT %: 22.7563  MISS %: 77.2437  AVERAGE MISS PENALTY: 1353.59
LLC6 LOAD      ACCESS:  9405  HIT:   561  MISS:  8844  HIT %: 5.96491  MISS %: 94.0351  AVERAGE MISS PENALTY: 1780.92
LLC6 RFO       ACCESS: 148841  HIT:     0  MISS: 148841  HIT %:     0  MISS %:   100  AVERAGE MISS PENALTY: 1740.2
LLC6 PREFETCH  ACCESS: 206683  HIT: 15288  MISS: 191395  HIT %: 7.39683  MISS %: 92.6032  AVERAGE MISS PENALTY: 1371.66
LLC6 WRITEBACK ACCESS: 148950  HIT: 101091  MISS: 47859  HIT %: 67.8691  MISS %: 32.1309  AVERAGE MISS PENALTY: 0
LLC6 PREFETCH  REQUESTED:     0  ISSUED:     0  USEFUL:  3398  USELESS: 1531504
 USEFUL LOAD PREFETCHES:       3398 PREFETCH ISSUED TO LOWER LEVEL: 1451113440  ACCURACY: 0.000234165
 TIMELY PREFETCHES:       3398 LATE PREFETCHES: 0 DROPPED PREFETCHES: 0
LLC6 AVERAGE MISS LATENCY: 1353.59 cycles
LLC7 TOTAL     ACCESS: 513668  HIT: 108789  MISS: 404879  HIT %: 21.1789  MISS %: 78.8211  AVERAGE MISS PENALTY: 1327.05
LLC7 LOAD      ACCESS: 11568  HIT:   493  MISS: 11075  HIT %: 4.26176  MISS %: 95.7382  AVERAGE MISS PENALTY: 1781.96
LLC7 RFO       ACCESS: 148841  HIT:     0  MISS: 148841  HIT %:     0  MISS %:   100  AVERAGE MISS PENALTY: 1739.3
LLC7 PREFETCH  ACCESS: 204350  HIT: 14477  MISS: 189873  HIT %: 7.08441  MISS %: 92.9156  AVERAGE MISS PENALTY: 1362.39
LLC7 WRITEBACK ACCESS: 148909  HIT: 93819  MISS: 55090  HIT %: 63.0043  MISS %: 36.9957  AVERAGE MISS PENALTY: 0
LLC7 PREFETCH  REQUESTED:     0  ISSUED:     0  USEFUL:  4057  USELESS: 1520671
 USEFUL LOAD PREFETCHES:       4057 PREFETCH ISSUED TO LOWER LEVEL: 1584525328  ACCURACY: 0.000256039
 TIMELY PREFETCHES:       4057 LATE PREFETCHES: 0 DROPPED PREFETCHES: 0
LLC7 AVERAGE MISS LATENCY: 1327.05 cycles
ROI Average ROB Stall Cycles:	16.1796
ROI Total ROB Stalls Cycles:	252457928
ROI TOTAL ROB counter      :	15603434
ROI Average Load ROB Stall Cycles:	86.9281
ROI Total Load ROB Stalls Cycle  :	175834595
ROI Total Load ROB stalls Counter:	2022758
Major fault: 0 Minor fault: 76668

CPU 7 cumulative IPC: 0.625353 instructions: 200000001 cycles: 319819285
ITLB TOTAL     ACCESS: 24510686  HIT: 24510686  MISS:     0  HIT %:   100  MISS %:     0  AVERAGE MISS PENALTY: 0
ITLB LOAD      ACCESS: 24510686  HIT: 24510686  MISS:     0  HIT %:   100  MISS %:     0  AVERAGE MISS PENALTY: 0
ITLB RFO       ACCESS:     0  HIT:     0  MISS:     0  HIT %:     0  MISS %:     0  AVERAGE MISS PENALTY: 0
ITLB PREFETCH  ACCESS:     0  HIT:     0  MISS:     0  HIT %:     0  MISS %:     0  AVERAGE MISS PENALTY: 0
ITLB WRITEBACK ACCESS:     0  HIT:     0  MISS:     0  HIT %:     0  MISS %:     0  AVERAGE MISS PENALTY: 0
ITLB PREFETCH  REQUESTED:     0  ISSUED:     0  USEFUL:     0  USELESS:     0
 USEFUL LOAD PREFETCHES:          0 PREFETCH ISSUED TO LOWER LEVEL:          0  ACCURACY: -nan
 TIMELY PREFETCHES:          0 LATE PREFETCHES: 0 DROPPED PREFETCHES: 0
ITLB AVERAGE MISS LATENCY: -nan cycles
DTLB TOTAL     ACCESS: 47677335  HIT: 47365884  MISS: 311451  HIT %: 99.3468  MISS %: 0.653248  AVERAGE MISS PENALTY: 45.1346
DTLB LOAD      ACCESS: 30300321  HIT: 30100738  MISS: 199583  HIT %: 99.3413  MISS %: 0.658683  AVERAGE MISS PENALTY: 29.0812
DTLB RFO       ACCESS: 17377014  HIT: 17265146  MISS: 111868  HIT %: 99.3562  MISS %: 0.64377  AVERAGE MISS PENALTY: 73.7753
DTLB PREFETCH  ACCESS:     0  HIT:     0  MISS:     0  HIT %:     0  MISS %:     0  AVERAGE MISS PENALTY: 0
DTLB WRITEBACK ACCESS:     0  HIT:     0  MISS:     0  HIT %:     0  MISS %:     0  AVERAGE MISS PENALTY: 0
DTLB PREFETCH  REQUESTED:     0  ISSUED:     0  USEFUL:     0  USELESS:     0
 USEFUL LOAD PREFETCHES:          0 PREFETCH ISSUED TO LOWER LEVEL:          0  ACCURACY: -nan
 TIMELY PREFETCHES:          0 LATE PREFETCHES: 0 DROPPED PREFETCHES: 0
DTLB AVERAGE MISS LATENCY: 45.1346 cycles
STLB TOTAL     ACCESS: 311451  HIT: 268848  MISS: 42603  HIT %: 86.3211  MISS %: 13.6789  AVERAGE MISS PENALTY: 100
STLB LOAD      ACCESS: 199583  HIT: 175586  MISS: 23997  HIT %: 87.9764  MISS %: 12.0236  AVERAGE MISS PENALTY: 100
STLB RFO       ACCESS: 111868  HIT: 93262  MISS: 18606  HIT %: 83.3679  MISS %: 16.6321  AVERAGE MISS PENALTY: 100
STLB PREFETCH  ACCESS:     0  HIT:     0  MISS:     0  HIT %:     0  MISS %:     0  AVERAGE MISS PENALTY: 0
STLB WRITEBACK ACCESS:     0  HIT:     0  MISS:     0  HIT %:     0  MISS %:     0  AVERAGE MISS PENALTY: 0
STLB PREFETCH  REQUESTED:     0  ISSUED:     0  USEFUL:     0  USELESS:     0
 USEFUL LOAD PREFETCHES:          0 PREFETCH ISSUED TO LOWER LEVEL:          0  ACCURACY: -nan
 TIMELY PREFETCHES:          0 LATE PREFETCHES: 0 DROPPED PREFETCHES: 0
STLB AVERAGE MISS LATENCY: 100 cycles
L1D TOTAL     ACCESS: 60308985  HIT: 57168669  MISS: 3140316  HIT %: 94.793  MISS %: 5.20705  AVERAGE MISS PENALTY: 8.08449e+06
L1D LOAD      ACCESS: 31998508  HIT: 31771084  MISS: 227424  HIT %: 99.2893  MISS %: 0.710733  AVERAGE MISS PENALTY: 1.11618e+08
L1D RFO       ACCESS: 24914416  HIT: 23721448  MISS: 1192968  HIT %: 95.2117  MISS %: 4.78826  AVERAGE MISS PENALTY: 2194.77
L1D PREFETCH  ACCESS: 3396061  HIT: 1676137  MISS: 1719924  HIT %: 49.3553  MISS %: 50.6447  AVERAGE MISS PENALTY: 393.587
L1D WRITEBACK ACCESS:     0  HIT:     0  MISS:     0  HIT %:     0  MISS %:     0  AVERAGE MISS PENALTY: 0
L1D PREFETCH  REQUESTED: 4455380  ISSUED: 3671650  USEFUL: 1716700  USELESS:  3231
 USEFUL LOAD PREFETCHES:    1716700 PREFETCH ISSUED TO LOWER LEVEL:  205167730  ACCURACY: 0.83673
 TIMELY PREFETCHES:    1716700 LATE PREFETCHES: 110313 DROPPED PREFETCHES: 783730
L1D AVERAGE MISS LATENCY: 1114.12 cycles
L1I TOTAL     ACCESS: 36091005  HIT: 36091005  MISS:     0  HIT %:   100  MISS %:     0  AVERAGE MISS PENALTY: 0
L1I LOAD      ACCESS: 36091005  HIT: 36091005  MISS:     0  HIT %:   100  MISS %:     0  AVERAGE MISS PENALTY: 0
L1I RFO       ACCESS:     0  HIT:     0  MISS:     0  HIT %:     0  MISS %:     0  AVERAGE MISS PENALTY: 0
L1I PREFETCH  ACCESS:     0  HIT:     0  MISS:     0  HIT %:     0  MISS %:     0  AVERAGE MISS PENALTY: 0
L1I WRITEBACK ACCESS:     0  HIT:     0  MISS:     0  HIT %:     0  MISS %:     0  AVERAGE MISS PENALTY: 0
L1I PREFETCH  REQUESTED:     0  ISSUED:     0  USEFUL:     0  USELESS:     0
 USEFUL LOAD PREFETCHES:          0 PREFETCH ISSUED TO LOWER LEVEL:          0  ACCURACY: -nan
 TIMELY PREFETCHES:          0 LATE PREFETCHES: 0 DROPPED PREFETCHES: 0
L1I AVERAGE MISS LATENCY: -nan cycles
L2C TOTAL     ACCESS: 6150327  HIT: 3227086  MISS: 2923241  HIT %: 52.4702  MISS %: 47.5298  AVERAGE MISS PENALTY: 8.89908e+06
L2C LOAD      ACCESS: 226319  HIT: 88372  MISS: 137947  HIT %: 39.0475  MISS %: 60.9525  AVERAGE MISS PENALTY: 1.88542e+08
L2C RFO       ACCESS: 1191998  HIT:  1242  MISS: 1190756  HIT %: 0.104195  MISS %: 99.8958  AVERAGE MISS PENALTY: 2181.55
L2C PREFETCH  ACCESS: 3533270  HIT: 1939138  MISS: 1594132  HIT %: 54.8822  MISS %: 45.1178  AVERAGE MISS PENALTY: 1757.25
L2C WRITEBACK ACCESS: 1198740  HIT: 1198334  MISS:   406  HIT %: 99.9661  MISS %: 0.0338689  AVERAGE MISS PENALTY: 0
L2C PREFETCH  REQUESTED: 3056321  ISSUED: 3053804  USEFUL: 71834  USELESS: 1521644
 USEFUL LOAD PREFETCHES:      71834 PREFETCH ISSUED TO LOWER LEVEL:    4076522  ACCURACY: 1.76214
 TIMELY PREFETCHES:      71834 LATE PREFETCHES: 107357 DROPPED PREFETCHES: 2517
L2C AVERAGE MISS LATENCY: 1915.23 cycles
LLC0 TOTAL     ACCESS: 514270  HIT: 90385  MISS: 423885  HIT %: 17.5754  MISS %: 82.4246  AVERAGE MISS PENALTY: 1421.53
LLC0 LOAD      ACCESS: 27466  HIT:  2219  MISS: 25247  HIT %: 8.07908  MISS %: 91.9209  AVERAGE MISS PENALTY: 1487.39
LLC0 RFO       ACCESS: 148841  HIT:     0  MISS: 148841  HIT %:     0  MISS %:   100  AVERAGE MISS PENALTY: 1922.49
LLC0 PREFETCH  ACCESS: 188916  HIT: 12145  MISS: 176771  HIT %: 6.42878  MISS %: 93.5712  AVERAGE MISS PENALTY: 1577.55
LLC0 WRITEBACK ACCESS: 149047  HIT: 76021  MISS: 73026  HIT %: 51.0047  MISS %: 48.9953  AVERAGE MISS PENALTY: 0
LLC0 PREFETCH  REQUESTED:     0  ISSUED:     0  USEFUL:   161  USELESS: 1416688
 USEFUL LOAD PREFETCHES:        161 PREFETCH ISSUED TO LOWER LEVEL:  572672036  ACCURACY: 2.81138e-05
 TIMELY PREFETCHES:        161 LATE PREFETCHES: 0 DROPPED PREFETCHES: 0
LLC0 AVERAGE MISS LATENCY: 1421.53 cycles
Deadblocks : 193809 Deadblock percentage : 767.652

LLC1 TOTAL     ACCESS: 514415  HIT: 104491  MISS: 409924  HIT %: 20.3126  MISS %: 79.6874  AVERAGE MISS PENALTY: 1514.71
LLC1 LOAD      ACCESS:   530  HIT:   152  MISS:   378  HIT %: 28.6792  MISS %: 71.3208  AVERAGE MISS PENALTY: 1713.14
LLC1 RFO       ACCESS: 148848  HIT:     0  MISS: 148848  HIT %:     0  MISS %:   100  AVERAGE MISS PENALTY: 2013.63
LLC1 PREFETCH  ACCESS: 216087  HIT: 15156  MISS: 200931  HIT %: 7.01384  MISS %: 92.9862  AVERAGE MISS PENALTY: 1595.29
LLC1 WRITEBACK ACCESS: 148950  HIT: 89183  MISS: 59767  HIT %: 59.8745  MISS %: 40.1255  AVERAGE MISS PENALTY: 0
LLC1 PREFETCH  REQUESTED:     0  ISSUED:     0  USEFUL:   192  USELESS: 1608645
 USEFUL LOAD PREFETCHES:        192 PREFETCH ISSUED TO LOWER LEVEL:  673922957  ACCURACY: 2.84899e-05
 TIMELY PREFETCHES:        192 LATE PREFETCHES: 0 DROPPED PREFETCHES: 0
LLC1 AVERAGE MISS LATENCY: 1514.71 cycles
LLC2 TOTAL     ACCESS: 514461  HIT: 116761  MISS: 397700  HIT %: 22.6958  MISS %: 77.3042  AVERAGE MISS PENALTY: 1532.79
LLC2 LOAD      ACCESS:   499  HIT:    97  MISS:   402  HIT %: 19.4389  MISS %: 80.5611  AVERAGE MISS PENALTY: 1691.81
LLC2 RFO       ACCESS: 148848  HIT:     0  MISS: 148848  HIT %:     0  MISS %:   100  AVERAGE MISS PENALTY: 1924.06
LLC2 PREFETCH  ACCESS: 216158  HIT: 16293  MISS: 199865  HIT %: 7.53754  MISS %: 92.4625  AVERAGE MISS PENALTY: 1613.69
LLC2 WRITEBACK ACCESS: 148956  HIT: 100371  MISS: 48585  HIT %: 67.383  MISS %: 32.617  AVERAGE MISS PENALTY: 0
LLC2 PREFETCH  REQUESTED:     0  ISSUED:     0  USEFUL:   162  USELESS: 1601363
 USEFUL LOAD PREFETCHES:        162 PREFETCH ISSUED TO LOWER LEVEL:  757219057  ACCURACY: 2.13941e-05
 TIMELY PREFETCHES:        162 LATE PREFETCHES: 0 DROPPED PREFETCHES: 0
LLC2 AVERAGE MISS LATENCY: 1532.79 cycles
LLC3 TOTAL     ACCESS: 514343  HIT: 120995  MISS: 393348  HIT %: 23.5242  MISS %: 76.4758  AVERAGE MISS PENALTY: 1568.51
LLC3 LOAD      ACCESS:   485  HIT:    33  MISS:   452  HIT %: 6.80412  MISS %: 93.1959  AVERAGE MISS PENALTY: 1819.49
LLC3 RFO       ACCESS: 148848  HIT:     0  MISS: 148848  HIT %:     0  MISS %:   100  AVERAGE MISS PENALTY: 1960.38
LLC3 PREFETCH  ACCESS: 215919  HIT: 16852  MISS: 199067  HIT %: 7.80478  MISS %: 92.1952  AVERAGE MISS PENALTY: 1629.34
LLC3 WRITEBACK ACCESS: 149091  HIT: 104110  MISS: 44981  HIT %: 69.8298  MISS %: 30.1702  AVERAGE MISS PENALTY: 0
LLC3 PREFETCH  REQUESTED:     0  ISSUED:     0  USEFUL:   242  USELESS: 1594937
 USEFUL LOAD PREFETCHES:        242 PREFETCH ISSUED TO LOWER LEVEL:  806552469  ACCURACY: 3.00042e-05
 TIMELY PREFETCHES:        242 LATE PREFETCHES: 0 DROPPED PREFETCHES: 0
LLC3 AVERAGE MISS LATENCY: 1568.51 cycles
LLC4 TOTAL     ACCESS: 514419  HIT: 121761  MISS: 392658  HIT %: 23.6696  MISS %: 76.3304  AVERAGE MISS PENALTY: 1522.53
LLC4 LOAD      ACCESS:   773  HIT:   109  MISS:   664  HIT %: 14.1009  MISS %: 85.8991  AVERAGE MISS PENALTY: 1794.59
LLC4 RFO       ACCESS: 148848  HIT:     0  MISS: 148848  HIT %:     0  MISS %:   100  AVERAGE MISS PENALTY: 1913.67
LLC4 PREFETCH  ACCESS: 215734  HIT: 17038  MISS: 198696  HIT %: 7.89769  MISS %: 92.1023  AVERAGE MISS PENALTY: 1569.2
LLC4 WRITEBACK ACCESS: 149064  HIT: 104614  MISS: 44450  HIT %: 70.1806  MISS %: 29.8194  AVERAGE MISS PENALTY: 0
LLC4 PREFETCH  REQUESTED:     0  ISSUED:     0  USEFUL:   486  USELESS: 1592276
 USEFUL LOAD PREFETCHES:        486 PREFETCH ISSUED TO LOWER LEVEL: 1009208854  ACCURACY: 4.81565e-05
 TIMELY PREFETCHES:        486 LATE PREFETCHES: 0 DROPPED PREFETCHES: 0
LLC4 AVERAGE MISS LATENCY: 1522.53 cycles
LLC5 TOTAL     ACCESS: 514333  HIT: 121340  MISS: 392993  HIT %: 23.5917  MISS %: 76.4083  AVERAGE MISS PENALTY: 1537.56
LLC5 LOAD      ACCESS:   757  HIT:    95  MISS:   662  HIT %: 12.5495  MISS %: 87.4505  AVERAGE MISS PENALTY: 1738.03
LLC5 RFO       ACCESS: 148841  HIT:     0  MISS: 148841  HIT %:     0  MISS %:   100  AVERAGE MISS PENALTY: 1932.94
LLC5 PREFETCH  ACCESS: 215766  HIT: 16852  MISS: 198914  HIT %: 7.81031  MISS %: 92.1897  AVERAGE MISS PENALTY: 1585.62
LLC5 WRITEBACK ACCESS: 148969  HIT: 104393  MISS: 44576  HIT %: 70.077  MISS %: 29.923  AVERAGE MISS PENALTY: 0
LLC5 PREFETCH  REQUESTED:     0  ISSUED:     0  USEFUL:   482  USELESS: 1593461
 USEFUL LOAD PREFETCHES:        482 PREFETCH ISSUED TO LOWER LEVEL: 1103299179  ACCURACY: 4.36872e-05
 TIMELY PREFETCHES:        482 LATE PREFETCHES: 0 DROPPED PREFETCHES: 0
LLC5 AVERAGE MISS LATENCY: 1537.56 cycles
LLC6 TOTAL     ACCESS: 514472  HIT: 117958  MISS: 396514  HIT %: 22.928  MISS %: 77.072  AVERAGE MISS PENALTY: 1352.35
LLC6 LOAD      ACCESS:  9443  HIT:   574  MISS:  8869  HIT %: 6.07858  MISS %: 93.9214  AVERAGE MISS PENALTY: 1785.5
LLC6 RFO       ACCESS: 148841  HIT:     0  MISS: 148841  HIT %:     0  MISS %:   100  AVERAGE MISS PENALTY: 1734.97
LLC6 PREFETCH  ACCESS: 207144  HIT: 15695  MISS: 191449  HIT %: 7.57685  MISS %: 92.4231  AVERAGE MISS PENALTY: 1369.33
LLC6 WRITEBACK ACCESS: 149044  HIT: 101689  MISS: 47355  HIT %: 68.2275  MISS %: 31.7725  AVERAGE MISS PENALTY: 0
LLC6 PREFETCH  REQUESTED:     0  ISSUED:     0  USEFUL:  3398  USELESS: 1531504
 USEFUL LOAD PREFETCHES:       3398 PREFETCH ISSUED TO LOWER LEVEL: 1451113440  ACCURACY: 0.000234165
 TIMELY PREFETCHES:       3398 LATE PREFETCHES: 0 DROPPED PREFETCHES: 0
LLC6 AVERAGE MISS LATENCY: 1352.35 cycles
LLC7 TOTAL     ACCESS: 514230  HIT: 109102  MISS: 405128  HIT %: 21.2166  MISS %: 78.7834  AVERAGE MISS PENALTY: 1327.51
LLC7 LOAD      ACCESS: 11427  HIT:   531  MISS: 10896  HIT %: 4.64689  MISS %: 95.3531  AVERAGE MISS PENALTY: 1800.65
LLC7 RFO       ACCESS: 148841  HIT:     0  MISS: 148841  HIT %:     0  MISS %:   100  AVERAGE MISS PENALTY: 1736.86
LLC7 PREFETCH  ACCESS: 204975  HIT: 14540  MISS: 190435  HIT %: 7.09355  MISS %: 92.9065  AVERAGE MISS PENALTY: 1363.6
LLC7 WRITEBACK ACCESS: 148987  HIT: 94031  MISS: 54956  HIT %: 63.1136  MISS %: 36.8864  AVERAGE MISS PENALTY: 0
LLC7 PREFETCH  REQUESTED:     0  ISSUED:     0  USEFUL:  4057  USELESS: 1520671
 USEFUL LOAD PREFETCHES:       4057 PREFETCH ISSUED TO LOWER LEVEL: 1584525328  ACCURACY: 0.000256039
 TIMELY PREFETCHES:       4057 LATE PREFETCHES: 0 DROPPED PREFETCHES: 0
LLC7 AVERAGE MISS LATENCY: 1327.51 cycles
ROI Average ROB Stall Cycles:	16.2305
ROI Total ROB Stalls Cycles:	253257924
ROI TOTAL ROB counter      :	15603850
ROI Average Load ROB Stall Cycles:	87.2738
ROI Total Load ROB Stalls Cycle  :	176473262
ROI Total Load ROB stalls Counter:	2022064
Major fault: 0 Minor fault: 76613








Interconnect Stats 
LINK 0 BW : 0LINK 1 BW : 0LINK 2 BW : 0LINK 3 BW : 0LINK 4 BW : 0LINK 5 BW : 0LINK 6 BW : 0LINK 7 BW : 0
DRAM Statistics
 CHANNEL 0
 RQ ROW_BUFFER_HIT: 6290631  ROW_BUFFER_MISS: 4913672
 DBUS_CONGESTED: 19280871
 WQ ROW_BUFFER_HIT: 486423  ROW_BUFFER_MISS: 4294751  FULL:     0

 CHANNEL 1
 RQ ROW_BUFFER_HIT: 6259380  ROW_BUFFER_MISS: 4940479
 DBUS_CONGESTED: 19280871
 WQ ROW_BUFFER_HIT: 458345  ROW_BUFFER_MISS: 4323084  FULL:     0

 AVG_CONGESTED_CYCLE: 6
DRAM PAGES: 2097152
Allocated PAGES: 613205
L2C destructor called
L1D destructor called
L1I destructor called
STLB destructor called
DTLB destructor called
ITLB destructor called
L2C destructor called
L1D destructor called
L1I destructor called
STLB destructor called
DTLB destructor called
ITLB destructor called
L2C destructor called
L1D destructor called
L1I destructor called
STLB destructor called
DTLB destructor called
ITLB destructor called
L2C destructor called
L1D destructor called
L1I destructor called
STLB destructor called
DTLB destructor called
ITLB destructor called
L2C destructor called
L1D destructor called
L1I destructor called
STLB destructor called
DTLB destructor called
ITLB destructor called
L2C destructor called
L1D destructor called
L1I destructor called
STLB destructor called
DTLB destructor called
ITLB destructor called
L2C destructor called
L1D destructor called
L1I destructor called
STLB destructor called
DTLB destructor called
ITLB destructor called
L2C destructor called
L1D destructor called
L1I destructor called
STLB destructor called
DTLB destructor called
ITLB destructor called
