
*** ChampSim Multicore Out-of-Order Simulator ***

Warmup Instructions: 200000000
Simulation Instructions: 200000000
Number of CPUs: 8
threads:1

L1I Configuration:
L1I_SET:64
L1I_WAY:8
L1I_RQ_SIZE:64
L1I_WQ_SIZE:64
L1I_PQ_SIZE:8
L1I_MSHR_SIZE:8

L1D Configuration:
L1D_SET:64
L1D_WAY:12
L1D_RQ_SIZE:64
L1D_WQ_SIZE:64
L1D_PQ_SIZE:8
L1D_MSHR_SIZE:16

L2C Configuration:
L2C_SET:1024
L2C_WAY:8
L2C_RQ_SIZE:32
L2C_WQ_SIZE:32
L2C_PQ_SIZE:16
L2C_MSHR_SIZE:32

LLC Configuration:
LLC_SET:2048
LLC_WAY:16
LLC SLICES:8
LLC_RQ_SIZE:64
LLC_WQ_SIZE:64
LLC_PQ_SIZE:32
LLC_MSHR_SIZE:64

Interconnect OFF
Attacker deprioritize is: OFF
Off-chip DRAM Size: 8192 MB Channels: 2 Width: 64-bit Data Rate: 3200 MT/s
PAGE SIZE in KB: 4.000000 
PAGE SIZE in MB: 0.003906 
PAGE offset in bits: 12 
CEASER-S_LLC:0
MIRAGE : 0
CEASER_LATENCY:3
REMAP : OFF
Partitions : 1
Multi-Step : OFF
BFS : OFF

CPU 0 runs /home/anubhav/spec_2017/605.mcf_s-472B.champsimtrace.xz
CPU 1 runs /home/anubhav/spec_2017/605.mcf_s-472B.champsimtrace.xz
CPU 2 runs /home/anubhav/spec_2017/605.mcf_s-472B.champsimtrace.xz
CPU 3 runs /home/anubhav/spec_2017/605.mcf_s-472B.champsimtrace.xz
CPU 4 runs /home/anubhav/spec_2017/605.mcf_s-472B.champsimtrace.xz
CPU 5 runs /home/anubhav/spec_2017/605.mcf_s-472B.champsimtrace.xz
CPU 6 runs /home/anubhav/spec_2017/605.mcf_s-472B.champsimtrace.xz
CPU 7 runs /home/anubhav/spec_2017/605.mcf_s-472B.champsimtrace.xz
CPU 0 Bimodal branch predictor
Initialize Hawkeye state
Initialize Hawkeye state
Initialize Hawkeye state
Initialize Hawkeye state
Initialize Hawkeye state
Initialize Hawkeye state
Initialize Hawkeye state
Initialize Hawkeye state
CPU 1 Bimodal branch predictor
Initialize Hawkeye state
Initialize Hawkeye state
Initialize Hawkeye state
Initialize Hawkeye state
Initialize Hawkeye state
Initialize Hawkeye state
Initialize Hawkeye state
Initialize Hawkeye state
CPU 2 Bimodal branch predictor
Initialize Hawkeye state
Initialize Hawkeye state
Initialize Hawkeye state
Initialize Hawkeye state
Initialize Hawkeye state
Initialize Hawkeye state
Initialize Hawkeye state
Initialize Hawkeye state
CPU 3 Bimodal branch predictor
Initialize Hawkeye state
Initialize Hawkeye state
Initialize Hawkeye state
Initialize Hawkeye state
Initialize Hawkeye state
Initialize Hawkeye state
Initialize Hawkeye state
Initialize Hawkeye state
CPU 4 Bimodal branch predictor
Initialize Hawkeye state
Initialize Hawkeye state
Initialize Hawkeye state
Initialize Hawkeye state
Initialize Hawkeye state
Initialize Hawkeye state
Initialize Hawkeye state
Initialize Hawkeye state
CPU 5 Bimodal branch predictor
Initialize Hawkeye state
Initialize Hawkeye state
Initialize Hawkeye state
Initialize Hawkeye state
Initialize Hawkeye state
Initialize Hawkeye state
Initialize Hawkeye state
Initialize Hawkeye state
CPU 6 Bimodal branch predictor
Initialize Hawkeye state
Initialize Hawkeye state
Initialize Hawkeye state
Initialize Hawkeye state
Initialize Hawkeye state
Initialize Hawkeye state
Initialize Hawkeye state
Initialize Hawkeye state
CPU 7 Bimodal branch predictor
Initialize Hawkeye state
Initialize Hawkeye state
Initialize Hawkeye state
Initialize Hawkeye state
Initialize Hawkeye state
Initialize Hawkeye state
Initialize Hawkeye state
Initialize Hawkeye state
Heartbeat CPU 1 instructions: 10000000 cycles: 5539463 heartbeat IPC: 1.80523 cumulative IPC: 1.80523 (Simulation time: 5 hr 54 min 14 sec) 
 Total Blocks : 262144 Invalid Blocks : 14
Heartbeat CPU 0 instructions: 10000000 cycles: 5539500 heartbeat IPC: 1.80522 cumulative IPC: 1.80522 (Simulation time: 5 hr 54 min 20 sec) 
 Total Blocks : 262144 Invalid Blocks : 14
Heartbeat CPU 2 instructions: 10000000 cycles: 5539521 heartbeat IPC: 1.80521 cumulative IPC: 1.80521 (Simulation time: 5 hr 54 min 20 sec) 
 Total Blocks : 262144 Invalid Blocks : 14
Heartbeat CPU 3 instructions: 10000000 cycles: 5539554 heartbeat IPC: 1.8052 cumulative IPC: 1.8052 (Simulation time: 5 hr 54 min 21 sec) 
 Total Blocks : 262144 Invalid Blocks : 14
Heartbeat CPU 4 instructions: 10000000 cycles: 5539587 heartbeat IPC: 1.80519 cumulative IPC: 1.80519 (Simulation time: 5 hr 54 min 21 sec) 
 Total Blocks : 262144 Invalid Blocks : 14
Heartbeat CPU 5 instructions: 10000000 cycles: 5539634 heartbeat IPC: 1.80517 cumulative IPC: 1.80517 (Simulation time: 5 hr 54 min 21 sec) 
 Total Blocks : 262144 Invalid Blocks : 14
Heartbeat CPU 6 instructions: 10000000 cycles: 5540382 heartbeat IPC: 1.80493 cumulative IPC: 1.80493 (Simulation time: 5 hr 54 min 23 sec) 
 Total Blocks : 262144 Invalid Blocks : 14
Heartbeat CPU 7 instructions: 10000000 cycles: 5540452 heartbeat IPC: 1.80491 cumulative IPC: 1.80491 (Simulation time: 5 hr 54 min 23 sec) 
 Total Blocks : 262144 Invalid Blocks : 14
Heartbeat CPU 0 instructions: 20000003 cycles: 11104909 heartbeat IPC: 1.79681 cumulative IPC: 1.80101 (Simulation time: 13 hr 6 min 41 sec) 
 Total Blocks : 262144 Invalid Blocks : 0
Heartbeat CPU 1 instructions: 20000003 cycles: 11104994 heartbeat IPC: 1.79677 cumulative IPC: 1.80099 (Simulation time: 13 hr 6 min 45 sec) 
 Total Blocks : 262144 Invalid Blocks : 0
Heartbeat CPU 7 instructions: 20000003 cycles: 11106988 heartbeat IPC: 1.79645 cumulative IPC: 1.80067 (Simulation time: 13 hr 6 min 50 sec) 
 Total Blocks : 262144 Invalid Blocks : 0
Heartbeat CPU 3 instructions: 20000003 cycles: 11107512 heartbeat IPC: 1.79599 cumulative IPC: 1.80058 (Simulation time: 13 hr 6 min 51 sec) 
 Total Blocks : 262144 Invalid Blocks : 0
Heartbeat CPU 5 instructions: 20000003 cycles: 11107656 heartbeat IPC: 1.79597 cumulative IPC: 1.80056 (Simulation time: 13 hr 6 min 52 sec) 
 Total Blocks : 262144 Invalid Blocks : 0
Heartbeat CPU 2 instructions: 20000003 cycles: 11107860 heartbeat IPC: 1.79587 cumulative IPC: 1.80053 (Simulation time: 13 hr 6 min 52 sec) 
 Total Blocks : 262144 Invalid Blocks : 0
Heartbeat CPU 4 instructions: 20000003 cycles: 11108041 heartbeat IPC: 1.79583 cumulative IPC: 1.8005 (Simulation time: 13 hr 6 min 52 sec) 
 Total Blocks : 262144 Invalid Blocks : 0
Heartbeat CPU 6 instructions: 20000003 cycles: 11108907 heartbeat IPC: 1.79581 cumulative IPC: 1.80036 (Simulation time: 13 hr 6 min 54 sec) 
 Total Blocks : 262144 Invalid Blocks : 0
Heartbeat CPU 0 instructions: 30000000 cycles: 16652332 heartbeat IPC: 1.80264 cumulative IPC: 1.80155 (Simulation time: 19 hr 2 min 6 sec) 
 Total Blocks : 262144 Invalid Blocks : 0
Heartbeat CPU 1 instructions: 30000000 cycles: 16652601 heartbeat IPC: 1.80258 cumulative IPC: 1.80152 (Simulation time: 19 hr 2 min 9 sec) 
 Total Blocks : 262144 Invalid Blocks : 0
Heartbeat CPU 3 instructions: 30000000 cycles: 16655142 heartbeat IPC: 1.80257 cumulative IPC: 1.80125 (Simulation time: 19 hr 2 min 14 sec) 
 Total Blocks : 262144 Invalid Blocks : 0
Heartbeat CPU 2 instructions: 30000000 cycles: 16655219 heartbeat IPC: 1.80266 cumulative IPC: 1.80124 (Simulation time: 19 hr 2 min 14 sec) 
 Total Blocks : 262144 Invalid Blocks : 0
Heartbeat CPU 7 instructions: 30000000 cycles: 16655456 heartbeat IPC: 1.8023 cumulative IPC: 1.80121 (Simulation time: 19 hr 2 min 14 sec) 
 Total Blocks : 262144 Invalid Blocks : 0
Heartbeat CPU 5 instructions: 30000000 cycles: 16655496 heartbeat IPC: 1.8025 cumulative IPC: 1.80121 (Simulation time: 19 hr 2 min 14 sec) 
 Total Blocks : 262144 Invalid Blocks : 0
Heartbeat CPU 4 instructions: 30000000 cycles: 16655643 heartbeat IPC: 1.80258 cumulative IPC: 1.80119 (Simulation time: 19 hr 2 min 14 sec) 
 Total Blocks : 262144 Invalid Blocks : 0
Heartbeat CPU 6 instructions: 30000000 cycles: 16656883 heartbeat IPC: 1.80246 cumulative IPC: 1.80106 (Simulation time: 19 hr 2 min 16 sec) 
 Total Blocks : 262144 Invalid Blocks : 0
Heartbeat CPU 1 instructions: 40000000 cycles: 22196564 heartbeat IPC: 1.80376 cumulative IPC: 1.80208 (Simulation time: 22 hr 45 min 4 sec) 
 Total Blocks : 262144 Invalid Blocks : 0
Heartbeat CPU 0 instructions: 40000000 cycles: 22196941 heartbeat IPC: 1.80355 cumulative IPC: 1.80205 (Simulation time: 22 hr 45 min 8 sec) 
 Total Blocks : 262144 Invalid Blocks : 0
Heartbeat CPU 3 instructions: 40000000 cycles: 22200039 heartbeat IPC: 1.80346 cumulative IPC: 1.8018 (Simulation time: 22 hr 45 min 16 sec) 
 Total Blocks : 262144 Invalid Blocks : 0
Heartbeat CPU 5 instructions: 40000000 cycles: 22200173 heartbeat IPC: 1.80353 cumulative IPC: 1.80179 (Simulation time: 22 hr 45 min 18 sec) 
 Total Blocks : 262144 Invalid Blocks : 0
Heartbeat CPU 2 instructions: 40000000 cycles: 22200258 heartbeat IPC: 1.80341 cumulative IPC: 1.80178 (Simulation time: 22 hr 45 min 19 sec) 
 Total Blocks : 262144 Invalid Blocks : 0
Heartbeat CPU 4 instructions: 40000000 cycles: 22200537 heartbeat IPC: 1.80346 cumulative IPC: 1.80176 (Simulation time: 22 hr 45 min 19 sec) 
 Total Blocks : 262144 Invalid Blocks : 0
Heartbeat CPU 6 instructions: 40000000 cycles: 22200737 heartbeat IPC: 1.8038 cumulative IPC: 1.80174 (Simulation time: 22 hr 45 min 19 sec) 
 Total Blocks : 262144 Invalid Blocks : 0
Heartbeat CPU 7 instructions: 40000000 cycles: 22200781 heartbeat IPC: 1.80332 cumulative IPC: 1.80174 (Simulation time: 22 hr 45 min 19 sec) 
 Total Blocks : 262144 Invalid Blocks : 0
Heartbeat CPU 1 instructions: 50000000 cycles: 27722800 heartbeat IPC: 1.80955 cumulative IPC: 1.80357 (Simulation time: 26 hr 9 min 39 sec) 
 Total Blocks : 262144 Invalid Blocks : 0
Heartbeat CPU 0 instructions: 50000000 cycles: 27723260 heartbeat IPC: 1.80952 cumulative IPC: 1.80354 (Simulation time: 26 hr 9 min 41 sec) 
 Total Blocks : 262144 Invalid Blocks : 0
Heartbeat CPU 3 instructions: 50000003 cycles: 27726643 heartbeat IPC: 1.80943 cumulative IPC: 1.80332 (Simulation time: 26 hr 9 min 45 sec) 
 Total Blocks : 262144 Invalid Blocks : 0
Heartbeat CPU 5 instructions: 50000000 cycles: 27726836 heartbeat IPC: 1.80941 cumulative IPC: 1.80331 (Simulation time: 26 hr 9 min 46 sec) 
 Total Blocks : 262144 Invalid Blocks : 0
Heartbeat CPU 2 instructions: 50000000 cycles: 27727016 heartbeat IPC: 1.80938 cumulative IPC: 1.8033 (Simulation time: 26 hr 9 min 46 sec) 
 Total Blocks : 262144 Invalid Blocks : 0
Heartbeat CPU 4 instructions: 50000000 cycles: 27727192 heartbeat IPC: 1.80941 cumulative IPC: 1.80328 (Simulation time: 26 hr 9 min 47 sec) 
 Total Blocks : 262144 Invalid Blocks : 0
Heartbeat CPU 7 instructions: 50000000 cycles: 27727754 heartbeat IPC: 1.80931 cumulative IPC: 1.80325 (Simulation time: 26 hr 9 min 47 sec) 
 Total Blocks : 262144 Invalid Blocks : 0
Heartbeat CPU 6 instructions: 50000000 cycles: 27727945 heartbeat IPC: 1.80923 cumulative IPC: 1.80323 (Simulation time: 26 hr 9 min 47 sec) 
 Total Blocks : 262144 Invalid Blocks : 0
Heartbeat CPU 1 instructions: 60000001 cycles: 33234549 heartbeat IPC: 1.81431 cumulative IPC: 1.80535 (Simulation time: 29 hr 18 min 39 sec) 
 Total Blocks : 262144 Invalid Blocks : 0
Heartbeat CPU 0 instructions: 60000001 cycles: 33234686 heartbeat IPC: 1.81441 cumulative IPC: 1.80534 (Simulation time: 29 hr 18 min 41 sec) 
 Total Blocks : 262144 Invalid Blocks : 0
Heartbeat CPU 3 instructions: 60000001 cycles: 33237574 heartbeat IPC: 1.81458 cumulative IPC: 1.80519 (Simulation time: 29 hr 18 min 45 sec) 
 Total Blocks : 262144 Invalid Blocks : 0
Heartbeat CPU 2 instructions: 60000001 cycles: 33238533 heartbeat IPC: 1.81438 cumulative IPC: 1.80513 (Simulation time: 29 hr 18 min 46 sec) 
 Total Blocks : 262144 Invalid Blocks : 0
Heartbeat CPU 5 instructions: 60000001 cycles: 33238567 heartbeat IPC: 1.81431 cumulative IPC: 1.80513 (Simulation time: 29 hr 18 min 46 sec) 
 Total Blocks : 262144 Invalid Blocks : 0
Heartbeat CPU 4 instructions: 60000001 cycles: 33239164 heartbeat IPC: 1.81423 cumulative IPC: 1.8051 (Simulation time: 29 hr 18 min 47 sec) 
 Total Blocks : 262144 Invalid Blocks : 0
Heartbeat CPU 7 instructions: 60000001 cycles: 33239869 heartbeat IPC: 1.81419 cumulative IPC: 1.80506 (Simulation time: 29 hr 18 min 49 sec) 
 Total Blocks : 262144 Invalid Blocks : 0
Heartbeat CPU 6 instructions: 60000001 cycles: 33239995 heartbeat IPC: 1.81421 cumulative IPC: 1.80505 (Simulation time: 29 hr 18 min 49 sec) 
 Total Blocks : 262144 Invalid Blocks : 0
Heartbeat CPU 1 instructions: 70000002 cycles: 38794295 heartbeat IPC: 1.79864 cumulative IPC: 1.80439 (Simulation time: 32 hr 16 min 54 sec) 
 Total Blocks : 262144 Invalid Blocks : 0
Heartbeat CPU 0 instructions: 70000002 cycles: 38794563 heartbeat IPC: 1.7986 cumulative IPC: 1.80438 (Simulation time: 32 hr 16 min 56 sec) 
 Total Blocks : 262144 Invalid Blocks : 0
Heartbeat CPU 3 instructions: 70000002 cycles: 38797437 heartbeat IPC: 1.79861 cumulative IPC: 1.80424 (Simulation time: 32 hr 17 min 5 sec) 
 Total Blocks : 262144 Invalid Blocks : 0
Heartbeat CPU 5 instructions: 70000002 cycles: 38797683 heartbeat IPC: 1.79885 cumulative IPC: 1.80423 (Simulation time: 32 hr 17 min 8 sec) 
 Total Blocks : 262144 Invalid Blocks : 0
Heartbeat CPU 2 instructions: 70000002 cycles: 38797873 heartbeat IPC: 1.79877 cumulative IPC: 1.80422 (Simulation time: 32 hr 17 min 9 sec) 
 Total Blocks : 262144 Invalid Blocks : 0
Heartbeat CPU 4 instructions: 70000002 cycles: 38799078 heartbeat IPC: 1.79859 cumulative IPC: 1.80417 (Simulation time: 32 hr 17 min 13 sec) 
 Total Blocks : 262144 Invalid Blocks : 0
Heartbeat CPU 6 instructions: 70000002 cycles: 38799770 heartbeat IPC: 1.79863 cumulative IPC: 1.80413 (Simulation time: 32 hr 17 min 17 sec) 
 Total Blocks : 262144 Invalid Blocks : 0
Heartbeat CPU 7 instructions: 70000002 cycles: 38800271 heartbeat IPC: 1.79843 cumulative IPC: 1.80411 (Simulation time: 32 hr 17 min 19 sec) 
 Total Blocks : 262144 Invalid Blocks : 0
Heartbeat CPU 1 instructions: 80000002 cycles: 44367190 heartbeat IPC: 1.7944 cumulative IPC: 1.80313 (Simulation time: 35 hr 42 min 59 sec) 
 Total Blocks : 262144 Invalid Blocks : 0
Heartbeat CPU 0 instructions: 80000002 cycles: 44367999 heartbeat IPC: 1.79423 cumulative IPC: 1.8031 (Simulation time: 35 hr 43 min 1 sec) 
 Total Blocks : 262144 Invalid Blocks : 0
Heartbeat CPU 4 instructions: 80000002 cycles: 44370933 heartbeat IPC: 1.79473 cumulative IPC: 1.80298 (Simulation time: 35 hr 43 min 5 sec) 
 Total Blocks : 262144 Invalid Blocks : 0
Heartbeat CPU 3 instructions: 80000002 cycles: 44370967 heartbeat IPC: 1.7942 cumulative IPC: 1.80298 (Simulation time: 35 hr 43 min 6 sec) 
 Total Blocks : 262144 Invalid Blocks : 0
Heartbeat CPU 2 instructions: 80000002 cycles: 44371149 heartbeat IPC: 1.79428 cumulative IPC: 1.80297 (Simulation time: 35 hr 43 min 7 sec) 
 Total Blocks : 262144 Invalid Blocks : 0
Heartbeat CPU 5 instructions: 80000002 cycles: 44371373 heartbeat IPC: 1.79414 cumulative IPC: 1.80296 (Simulation time: 35 hr 43 min 7 sec) 
 Total Blocks : 262144 Invalid Blocks : 0
Heartbeat CPU 6 instructions: 80000002 cycles: 44373878 heartbeat IPC: 1.79401 cumulative IPC: 1.80286 (Simulation time: 35 hr 43 min 9 sec) 
 Total Blocks : 262144 Invalid Blocks : 0
Heartbeat CPU 7 instructions: 80000002 cycles: 44374098 heartbeat IPC: 1.7941 cumulative IPC: 1.80285 (Simulation time: 35 hr 43 min 9 sec) 
 Total Blocks : 262144 Invalid Blocks : 0
Heartbeat CPU 1 instructions: 90000000 cycles: 49884476 heartbeat IPC: 1.81248 cumulative IPC: 1.80417 (Simulation time: 38 hr 24 min 49 sec) 
 Total Blocks : 262144 Invalid Blocks : 0
Heartbeat CPU 0 instructions: 90000000 cycles: 49885932 heartbeat IPC: 1.81227 cumulative IPC: 1.80412 (Simulation time: 38 hr 24 min 52 sec) 
 Total Blocks : 262144 Invalid Blocks : 0
Heartbeat CPU 3 instructions: 90000000 cycles: 49887414 heartbeat IPC: 1.81276 cumulative IPC: 1.80406 (Simulation time: 38 hr 24 min 53 sec) 
 Total Blocks : 262144 Invalid Blocks : 0
Heartbeat CPU 4 instructions: 90000000 cycles: 49887825 heartbeat IPC: 1.81261 cumulative IPC: 1.80405 (Simulation time: 38 hr 24 min 53 sec) 
 Total Blocks : 262144 Invalid Blocks : 0
Heartbeat CPU 5 instructions: 90000000 cycles: 49889241 heartbeat IPC: 1.81229 cumulative IPC: 1.804 (Simulation time: 38 hr 24 min 55 sec) 
 Total Blocks : 262144 Invalid Blocks : 0
Heartbeat CPU 2 instructions: 90000000 cycles: 49889482 heartbeat IPC: 1.81214 cumulative IPC: 1.80399 (Simulation time: 38 hr 24 min 55 sec) 
 Total Blocks : 262144 Invalid Blocks : 0
Heartbeat CPU 6 instructions: 90000000 cycles: 49891459 heartbeat IPC: 1.81239 cumulative IPC: 1.80392 (Simulation time: 38 hr 24 min 56 sec) 
 Total Blocks : 262144 Invalid Blocks : 0
Heartbeat CPU 7 instructions: 90000000 cycles: 49891749 heartbeat IPC: 1.81237 cumulative IPC: 1.80391 (Simulation time: 38 hr 24 min 56 sec) 
 Total Blocks : 262144 Invalid Blocks : 0
Heartbeat CPU 1 instructions: 100000001 cycles: 55412802 heartbeat IPC: 1.80887 cumulative IPC: 1.80464 (Simulation time: 41 hr 26 min 7 sec) 
 Total Blocks : 262144 Invalid Blocks : 0
Heartbeat CPU 0 instructions: 100000001 cycles: 55413661 heartbeat IPC: 1.80906 cumulative IPC: 1.80461 (Simulation time: 41 hr 26 min 10 sec) 
 Total Blocks : 262144 Invalid Blocks : 0
Heartbeat CPU 3 instructions: 100000001 cycles: 55414970 heartbeat IPC: 1.80912 cumulative IPC: 1.80457 (Simulation time: 41 hr 26 min 11 sec) 
 Total Blocks : 262144 Invalid Blocks : 0
Heartbeat CPU 4 instructions: 100000001 cycles: 55415510 heartbeat IPC: 1.80908 cumulative IPC: 1.80455 (Simulation time: 41 hr 26 min 11 sec) 
 Total Blocks : 262144 Invalid Blocks : 0
Heartbeat CPU 5 instructions: 100000001 cycles: 55417153 heartbeat IPC: 1.809 cumulative IPC: 1.8045 (Simulation time: 41 hr 26 min 13 sec) 
 Total Blocks : 262144 Invalid Blocks : 0
Heartbeat CPU 2 instructions: 100000001 cycles: 55417700 heartbeat IPC: 1.8089 cumulative IPC: 1.80448 (Simulation time: 41 hr 26 min 13 sec) 
 Total Blocks : 262144 Invalid Blocks : 0
Heartbeat CPU 7 instructions: 100000001 cycles: 55420142 heartbeat IPC: 1.80884 cumulative IPC: 1.8044 (Simulation time: 41 hr 26 min 16 sec) 
 Total Blocks : 262144 Invalid Blocks : 0
Heartbeat CPU 6 instructions: 100000001 cycles: 55420418 heartbeat IPC: 1.80866 cumulative IPC: 1.80439 (Simulation time: 41 hr 26 min 16 sec) 
 Total Blocks : 262144 Invalid Blocks : 0
Heartbeat CPU 1 instructions: 110000000 cycles: 60943479 heartbeat IPC: 1.8081 cumulative IPC: 1.80495 (Simulation time: 44 hr 14 min 43 sec) 
 Total Blocks : 262144 Invalid Blocks : 0
Heartbeat CPU 0 instructions: 110000000 cycles: 60944530 heartbeat IPC: 1.80803 cumulative IPC: 1.80492 (Simulation time: 44 hr 14 min 46 sec) 
 Total Blocks : 262144 Invalid Blocks : 0
Heartbeat CPU 4 instructions: 110000000 cycles: 60947963 heartbeat IPC: 1.80752 cumulative IPC: 1.80482 (Simulation time: 44 hr 14 min 48 sec) 
 Total Blocks : 262144 Invalid Blocks : 0
Heartbeat CPU 3 instructions: 110000000 cycles: 60948578 heartbeat IPC: 1.80714 cumulative IPC: 1.8048 (Simulation time: 44 hr 14 min 49 sec) 
 Total Blocks : 262144 Invalid Blocks : 0
Heartbeat CPU 2 instructions: 110000000 cycles: 60950003 heartbeat IPC: 1.80757 cumulative IPC: 1.80476 (Simulation time: 44 hr 14 min 50 sec) 
 Total Blocks : 262144 Invalid Blocks : 0
Heartbeat CPU 5 instructions: 110000000 cycles: 60950797 heartbeat IPC: 1.80713 cumulative IPC: 1.80473 (Simulation time: 44 hr 14 min 50 sec) 
 Total Blocks : 262144 Invalid Blocks : 0
Heartbeat CPU 7 instructions: 110000000 cycles: 60951293 heartbeat IPC: 1.80794 cumulative IPC: 1.80472 (Simulation time: 44 hr 14 min 50 sec) 
 Total Blocks : 262144 Invalid Blocks : 0
Heartbeat CPU 6 instructions: 110000000 cycles: 60955405 heartbeat IPC: 1.80669 cumulative IPC: 1.8046 (Simulation time: 44 hr 14 min 56 sec) 
 Total Blocks : 262144 Invalid Blocks : 0
Heartbeat CPU 1 instructions: 120000001 cycles: 66498660 heartbeat IPC: 1.80012 cumulative IPC: 1.80455 (Simulation time: 47 hr 18 min 12 sec) 
 Total Blocks : 262144 Invalid Blocks : 0
Heartbeat CPU 0 instructions: 120000001 cycles: 66499499 heartbeat IPC: 1.80019 cumulative IPC: 1.80452 (Simulation time: 47 hr 18 min 14 sec) 
 Total Blocks : 262144 Invalid Blocks : 0
Heartbeat CPU 4 instructions: 120000001 cycles: 66502495 heartbeat IPC: 1.80033 cumulative IPC: 1.80444 (Simulation time: 47 hr 18 min 17 sec) 
 Total Blocks : 262144 Invalid Blocks : 0
Heartbeat CPU 3 instructions: 120000001 cycles: 66503447 heartbeat IPC: 1.80022 cumulative IPC: 1.80442 (Simulation time: 47 hr 18 min 18 sec) 
 Total Blocks : 262144 Invalid Blocks : 0
Heartbeat CPU 2 instructions: 120000001 cycles: 66504366 heartbeat IPC: 1.80039 cumulative IPC: 1.80439 (Simulation time: 47 hr 18 min 18 sec) 
 Total Blocks : 262144 Invalid Blocks : 0
Heartbeat CPU 7 instructions: 120000001 cycles: 66506046 heartbeat IPC: 1.80026 cumulative IPC: 1.80435 (Simulation time: 47 hr 18 min 19 sec) 
 Total Blocks : 262144 Invalid Blocks : 0
Heartbeat CPU 5 instructions: 120000001 cycles: 66506493 heartbeat IPC: 1.79995 cumulative IPC: 1.80434 (Simulation time: 47 hr 18 min 20 sec) 
 Total Blocks : 262144 Invalid Blocks : 0
Heartbeat CPU 6 instructions: 120000001 cycles: 66511221 heartbeat IPC: 1.79992 cumulative IPC: 1.80421 (Simulation time: 47 hr 18 min 24 sec) 
 Total Blocks : 262144 Invalid Blocks : 0
Heartbeat CPU 1 instructions: 130000002 cycles: 72019506 heartbeat IPC: 1.81132 cumulative IPC: 1.80507 (Simulation time: 50 hr 3 min 21 sec) 
 Total Blocks : 262144 Invalid Blocks : 0
Heartbeat CPU 0 instructions: 130000002 cycles: 72020393 heartbeat IPC: 1.8113 cumulative IPC: 1.80504 (Simulation time: 50 hr 3 min 24 sec) 
 Total Blocks : 262144 Invalid Blocks : 0
Heartbeat CPU 4 instructions: 130000002 cycles: 72022764 heartbeat IPC: 1.81151 cumulative IPC: 1.80498 (Simulation time: 50 hr 3 min 27 sec) 
 Total Blocks : 262144 Invalid Blocks : 0
Heartbeat CPU 3 instructions: 130000002 cycles: 72023354 heartbeat IPC: 1.81162 cumulative IPC: 1.80497 (Simulation time: 50 hr 3 min 29 sec) 
 Total Blocks : 262144 Invalid Blocks : 0
Heartbeat CPU 2 instructions: 130000002 cycles: 72025172 heartbeat IPC: 1.81133 cumulative IPC: 1.80492 (Simulation time: 50 hr 3 min 31 sec) 
 Total Blocks : 262144 Invalid Blocks : 0
Heartbeat CPU 7 instructions: 130000002 cycles: 72027100 heartbeat IPC: 1.81125 cumulative IPC: 1.80488 (Simulation time: 50 hr 3 min 33 sec) 
 Total Blocks : 262144 Invalid Blocks : 0
Heartbeat CPU 5 instructions: 130000002 cycles: 72027729 heartbeat IPC: 1.81119 cumulative IPC: 1.80486 (Simulation time: 50 hr 3 min 33 sec) 
 Total Blocks : 262144 Invalid Blocks : 0
Heartbeat CPU 6 instructions: 130000002 cycles: 72032011 heartbeat IPC: 1.81134 cumulative IPC: 1.80475 (Simulation time: 50 hr 3 min 37 sec) 
 Total Blocks : 262144 Invalid Blocks : 0
Heartbeat CPU 1 instructions: 140000002 cycles: 77575187 heartbeat IPC: 1.79996 cumulative IPC: 1.8047 (Simulation time: 52 hr 42 min 24 sec) 
 Total Blocks : 262144 Invalid Blocks : 0
Heartbeat CPU 0 instructions: 140000002 cycles: 77576215 heartbeat IPC: 1.79991 cumulative IPC: 1.80468 (Simulation time: 52 hr 42 min 26 sec) 
 Total Blocks : 262144 Invalid Blocks : 0
Heartbeat CPU 4 instructions: 140000002 cycles: 77578234 heartbeat IPC: 1.80003 cumulative IPC: 1.80463 (Simulation time: 52 hr 42 min 27 sec) 
 Total Blocks : 262144 Invalid Blocks : 0
Heartbeat CPU 3 instructions: 140000002 cycles: 77579472 heartbeat IPC: 1.79982 cumulative IPC: 1.8046 (Simulation time: 52 hr 42 min 28 sec) 
 Total Blocks : 262144 Invalid Blocks : 0
Heartbeat CPU 2 instructions: 140000002 cycles: 77580791 heartbeat IPC: 1.79998 cumulative IPC: 1.80457 (Simulation time: 52 hr 42 min 31 sec) 
 Total Blocks : 262144 Invalid Blocks : 0
Heartbeat CPU 7 instructions: 140000002 cycles: 77583832 heartbeat IPC: 1.79962 cumulative IPC: 1.8045 (Simulation time: 52 hr 42 min 35 sec) 
 Total Blocks : 262144 Invalid Blocks : 0
Heartbeat CPU 5 instructions: 140000002 cycles: 77584308 heartbeat IPC: 1.79967 cumulative IPC: 1.80449 (Simulation time: 52 hr 42 min 36 sec) 
 Total Blocks : 262144 Invalid Blocks : 0
Heartbeat CPU 6 instructions: 140000002 cycles: 77588445 heartbeat IPC: 1.79972 cumulative IPC: 1.80439 (Simulation time: 52 hr 42 min 42 sec) 
 Total Blocks : 262144 Invalid Blocks : 0
Heartbeat CPU 1 instructions: 150000001 cycles: 83085800 heartbeat IPC: 1.81468 cumulative IPC: 1.80536 (Simulation time: 55 hr 8 min 41 sec) 
 Total Blocks : 262144 Invalid Blocks : 0
Heartbeat CPU 0 instructions: 150000001 cycles: 83086865 heartbeat IPC: 1.81467 cumulative IPC: 1.80534 (Simulation time: 55 hr 8 min 58 sec) 
 Total Blocks : 262144 Invalid Blocks : 0
Heartbeat CPU 4 instructions: 150000001 cycles: 83089159 heartbeat IPC: 1.81458 cumulative IPC: 1.80529 (Simulation time: 55 hr 9 min 2 sec) 
 Total Blocks : 262144 Invalid Blocks : 0
Heartbeat CPU 3 instructions: 150000001 cycles: 83090495 heartbeat IPC: 1.81454 cumulative IPC: 1.80526 (Simulation time: 55 hr 9 min 4 sec) 
 Total Blocks : 262144 Invalid Blocks : 0
Heartbeat CPU 2 instructions: 150000001 cycles: 83091501 heartbeat IPC: 1.81465 cumulative IPC: 1.80524 (Simulation time: 55 hr 9 min 5 sec) 
 Total Blocks : 262144 Invalid Blocks : 0
Heartbeat CPU 7 instructions: 150000001 cycles: 83094968 heartbeat IPC: 1.81451 cumulative IPC: 1.80516 (Simulation time: 55 hr 9 min 10 sec) 
 Total Blocks : 262144 Invalid Blocks : 0
Heartbeat CPU 5 instructions: 150000001 cycles: 83095061 heartbeat IPC: 1.81463 cumulative IPC: 1.80516 (Simulation time: 55 hr 9 min 11 sec) 
 Total Blocks : 262144 Invalid Blocks : 0
Heartbeat CPU 6 instructions: 150000001 cycles: 83099413 heartbeat IPC: 1.81456 cumulative IPC: 1.80507 (Simulation time: 55 hr 9 min 17 sec) 
 Total Blocks : 262144 Invalid Blocks : 0
Heartbeat CPU 1 instructions: 160000002 cycles: 88679478 heartbeat IPC: 1.78773 cumulative IPC: 1.80425 (Simulation time: 57 hr 51 min 26 sec) 
 Total Blocks : 262144 Invalid Blocks : 0
Heartbeat CPU 0 instructions: 160000002 cycles: 88679839 heartbeat IPC: 1.78796 cumulative IPC: 1.80424 (Simulation time: 57 hr 51 min 28 sec) 
 Total Blocks : 262144 Invalid Blocks : 0
Heartbeat CPU 4 instructions: 160000002 cycles: 88683107 heartbeat IPC: 1.78765 cumulative IPC: 1.80418 (Simulation time: 57 hr 51 min 32 sec) 
 Total Blocks : 262144 Invalid Blocks : 0
Heartbeat CPU 3 instructions: 160000002 cycles: 88684467 heartbeat IPC: 1.78764 cumulative IPC: 1.80415 (Simulation time: 57 hr 51 min 33 sec) 
 Total Blocks : 262144 Invalid Blocks : 0
Heartbeat CPU 2 instructions: 160000002 cycles: 88685323 heartbeat IPC: 1.78769 cumulative IPC: 1.80413 (Simulation time: 57 hr 51 min 35 sec) 
 Total Blocks : 262144 Invalid Blocks : 0
Heartbeat CPU 7 instructions: 160000002 cycles: 88689189 heartbeat IPC: 1.78756 cumulative IPC: 1.80405 (Simulation time: 57 hr 51 min 38 sec) 
 Total Blocks : 262144 Invalid Blocks : 0
Heartbeat CPU 5 instructions: 160000002 cycles: 88689291 heartbeat IPC: 1.78756 cumulative IPC: 1.80405 (Simulation time: 57 hr 51 min 38 sec) 
 Total Blocks : 262144 Invalid Blocks : 0
Heartbeat CPU 6 instructions: 160000002 cycles: 88693410 heartbeat IPC: 1.78763 cumulative IPC: 1.80397 (Simulation time: 57 hr 51 min 48 sec) 
 Total Blocks : 262144 Invalid Blocks : 0
Heartbeat CPU 0 instructions: 170000001 cycles: 94259223 heartbeat IPC: 1.79231 cumulative IPC: 1.80354 (Simulation time: 60 hr 25 min 45 sec) 
 Total Blocks : 262144 Invalid Blocks : 0
Heartbeat CPU 1 instructions: 170000001 cycles: 94259376 heartbeat IPC: 1.79215 cumulative IPC: 1.80353 (Simulation time: 60 hr 25 min 51 sec) 
 Total Blocks : 262144 Invalid Blocks : 0
Heartbeat CPU 4 instructions: 170000001 cycles: 94262491 heartbeat IPC: 1.79231 cumulative IPC: 1.80347 (Simulation time: 60 hr 26 min 0 sec) 
 Total Blocks : 262144 Invalid Blocks : 0
Heartbeat CPU 2 instructions: 170000001 cycles: 94264580 heartbeat IPC: 1.79235 cumulative IPC: 1.80343 (Simulation time: 60 hr 26 min 6 sec) 
 Total Blocks : 262144 Invalid Blocks : 0
Heartbeat CPU 3 instructions: 170000001 cycles: 94264718 heartbeat IPC: 1.79203 cumulative IPC: 1.80343 (Simulation time: 60 hr 26 min 7 sec) 
 Total Blocks : 262144 Invalid Blocks : 0
Heartbeat CPU 7 instructions: 170000001 cycles: 94268977 heartbeat IPC: 1.79218 cumulative IPC: 1.80335 (Simulation time: 60 hr 26 min 14 sec) 
 Total Blocks : 262144 Invalid Blocks : 0
Heartbeat CPU 5 instructions: 170000001 cycles: 94269409 heartbeat IPC: 1.79208 cumulative IPC: 1.80334 (Simulation time: 60 hr 26 min 15 sec) 
 Total Blocks : 262144 Invalid Blocks : 0
Heartbeat CPU 6 instructions: 170000001 cycles: 94273104 heartbeat IPC: 1.79221 cumulative IPC: 1.80327 (Simulation time: 60 hr 26 min 21 sec) 
 Total Blocks : 262144 Invalid Blocks : 0
Heartbeat CPU 0 instructions: 180000001 cycles: 99798180 heartbeat IPC: 1.80539 cumulative IPC: 1.80364 (Simulation time: 62 hr 4 min 40 sec) 
 Total Blocks : 262144 Invalid Blocks : 0
Heartbeat CPU 1 instructions: 180000001 cycles: 99799302 heartbeat IPC: 1.80508 cumulative IPC: 1.80362 (Simulation time: 62 hr 4 min 41 sec) 
 Total Blocks : 262144 Invalid Blocks : 0
Heartbeat CPU 4 instructions: 180000001 cycles: 99802125 heartbeat IPC: 1.80517 cumulative IPC: 1.80357 (Simulation time: 62 hr 4 min 44 sec) 
 Total Blocks : 262144 Invalid Blocks : 0
Heartbeat CPU 3 instructions: 180000001 cycles: 99804357 heartbeat IPC: 1.80517 cumulative IPC: 1.80353 (Simulation time: 62 hr 4 min 46 sec) 
 Total Blocks : 262144 Invalid Blocks : 0
Heartbeat CPU 2 instructions: 180000001 cycles: 99804470 heartbeat IPC: 1.80509 cumulative IPC: 1.80353 (Simulation time: 62 hr 4 min 46 sec) 
 Total Blocks : 262144 Invalid Blocks : 0
Heartbeat CPU 7 instructions: 180000001 cycles: 99808314 heartbeat IPC: 1.80527 cumulative IPC: 1.80346 (Simulation time: 62 hr 4 min 49 sec) 
 Total Blocks : 262144 Invalid Blocks : 0
Heartbeat CPU 5 instructions: 180000001 cycles: 99808943 heartbeat IPC: 1.80521 cumulative IPC: 1.80345 (Simulation time: 62 hr 4 min 49 sec) 
 Total Blocks : 262144 Invalid Blocks : 0
Heartbeat CPU 6 instructions: 180000001 cycles: 99813297 heartbeat IPC: 1.80499 cumulative IPC: 1.80337 (Simulation time: 62 hr 4 min 52 sec) 
 Total Blocks : 262144 Invalid Blocks : 0
Heartbeat CPU 0 instructions: 190000001 cycles: 105325806 heartbeat IPC: 1.80909 cumulative IPC: 1.80393 (Simulation time: 64 hr 16 min 57 sec) 
 Total Blocks : 262144 Invalid Blocks : 0
Heartbeat CPU 1 instructions: 190000000 cycles: 105327013 heartbeat IPC: 1.80907 cumulative IPC: 1.80391 (Simulation time: 64 hr 16 min 58 sec) 
 Total Blocks : 262144 Invalid Blocks : 0
Heartbeat CPU 4 instructions: 190000001 cycles: 105330552 heartbeat IPC: 1.80883 cumulative IPC: 1.80385 (Simulation time: 64 hr 17 min 0 sec) 
 Total Blocks : 262144 Invalid Blocks : 0
Heartbeat CPU 3 instructions: 190000001 cycles: 105332220 heartbeat IPC: 1.80902 cumulative IPC: 1.80382 (Simulation time: 64 hr 17 min 2 sec) 
 Total Blocks : 262144 Invalid Blocks : 0
Heartbeat CPU 2 instructions: 190000001 cycles: 105332305 heartbeat IPC: 1.80903 cumulative IPC: 1.80382 (Simulation time: 64 hr 17 min 2 sec) 
 Total Blocks : 262144 Invalid Blocks : 0
Heartbeat CPU 5 instructions: 190000001 cycles: 105336559 heartbeat IPC: 1.8091 cumulative IPC: 1.80374 (Simulation time: 64 hr 17 min 4 sec) 
 Total Blocks : 262144 Invalid Blocks : 0
Heartbeat CPU 7 instructions: 190000001 cycles: 105336893 heartbeat IPC: 1.80878 cumulative IPC: 1.80374 (Simulation time: 64 hr 17 min 4 sec) 
 Total Blocks : 262144 Invalid Blocks : 0
Heartbeat CPU 6 instructions: 190000000 cycles: 105341762 heartbeat IPC: 1.80882 cumulative IPC: 1.80365 (Simulation time: 64 hr 17 min 7 sec) 
 Total Blocks : 262144 Invalid Blocks : 0
Heartbeat CPU 0 instructions: 200000000 cycles: 110872135 heartbeat IPC: 1.80299 cumulative IPC: 1.80388 (Simulation time: 66 hr 1 min 40 sec) 
 Total Blocks : 262144 Invalid Blocks : 0
Heartbeat CPU 1 instructions: 200000000 cycles: 110873298 heartbeat IPC: 1.80301 cumulative IPC: 1.80386 (Simulation time: 66 hr 1 min 42 sec) 
 Total Blocks : 262144 Invalid Blocks : 0
Heartbeat CPU 4 instructions: 200000000 cycles: 110877462 heartbeat IPC: 1.80281 cumulative IPC: 1.80379 (Simulation time: 66 hr 1 min 45 sec) 
 Total Blocks : 262144 Invalid Blocks : 0
Heartbeat CPU 3 instructions: 200000000 cycles: 110878360 heartbeat IPC: 1.80306 cumulative IPC: 1.80378 (Simulation time: 66 hr 1 min 47 sec) 
 Total Blocks : 262144 Invalid Blocks : 0
Heartbeat CPU 2 instructions: 200000000 cycles: 110878732 heartbeat IPC: 1.80296 cumulative IPC: 1.80377 (Simulation time: 66 hr 1 min 47 sec) 
 Total Blocks : 262144 Invalid Blocks : 0
Heartbeat CPU 5 instructions: 200000000 cycles: 110882941 heartbeat IPC: 1.80298 cumulative IPC: 1.8037 (Simulation time: 66 hr 1 min 51 sec) 
 Total Blocks : 262144 Invalid Blocks : 0
Heartbeat CPU 7 instructions: 200000000 cycles: 110883261 heartbeat IPC: 1.80298 cumulative IPC: 1.8037 (Simulation time: 66 hr 1 min 51 sec) 
 Total Blocks : 262144 Invalid Blocks : 0
Heartbeat CPU 6 instructions: 200000000 cycles: 110888171 heartbeat IPC: 1.80297 cumulative IPC: 1.80362 (Simulation time: 66 hr 1 min 56 sec) 
 Total Blocks : 262144 Invalid Blocks : 0

Warmup complete CPU 0 instructions: 200028519 cycles: 110888172 (Simulation time: 66 hr 1 min 56 sec) 
Warmup complete CPU 1 instructions: 200026361 cycles: 110888172 (Simulation time: 66 hr 1 min 56 sec) 
Warmup complete CPU 2 instructions: 200016871 cycles: 110888172 (Simulation time: 66 hr 1 min 56 sec) 
Warmup complete CPU 3 instructions: 200017543 cycles: 110888172 (Simulation time: 66 hr 1 min 56 sec) 
Warmup complete CPU 4 instructions: 200019075 cycles: 110888172 (Simulation time: 66 hr 1 min 56 sec) 
Warmup complete CPU 5 instructions: 200009444 cycles: 110888172 (Simulation time: 66 hr 1 min 56 sec) 
Warmup complete CPU 6 instructions: 200000004 cycles: 110888172 (Simulation time: 66 hr 1 min 56 sec) 
Warmup complete CPU 7 instructions: 200008868 cycles: 110888171 (Simulation time: 66 hr 1 min 56 sec) 

Heartbeat CPU 0 instructions: 210000000 cycles: 153938095 heartbeat IPC: 0.232202 cumulative IPC: 0.231626 (Simulation time: 68 hr 59 min 39 sec) 
 Total Blocks : 262144 Invalid Blocks : 0
Heartbeat CPU 1 instructions: 210000000 cycles: 153946719 heartbeat IPC: 0.232162 cumulative IPC: 0.23163 (Simulation time: 68 hr 59 min 47 sec) 
 Total Blocks : 262144 Invalid Blocks : 0
Heartbeat CPU 3 instructions: 210000000 cycles: 153970726 heartbeat IPC: 0.23206 cumulative IPC: 0.231705 (Simulation time: 69 hr 0 min 9 sec) 
 Total Blocks : 262144 Invalid Blocks : 0
Heartbeat CPU 2 instructions: 210000000 cycles: 153982447 heartbeat IPC: 0.231999 cumulative IPC: 0.231658 (Simulation time: 69 hr 0 min 17 sec) 
 Total Blocks : 262144 Invalid Blocks : 0
Heartbeat CPU 4 instructions: 210000000 cycles: 154200949 heartbeat IPC: 0.230822 cumulative IPC: 0.230438 (Simulation time: 69 hr 2 min 10 sec) 
 Total Blocks : 262144 Invalid Blocks : 0
Heartbeat CPU 7 instructions: 210000000 cycles: 154223306 heartbeat IPC: 0.230733 cumulative IPC: 0.230555 (Simulation time: 69 hr 2 min 21 sec) 
 Total Blocks : 262144 Invalid Blocks : 0
Heartbeat CPU 5 instructions: 210000000 cycles: 154238004 heartbeat IPC: 0.230654 cumulative IPC: 0.230464 (Simulation time: 69 hr 2 min 27 sec) 
 Total Blocks : 262144 Invalid Blocks : 0
Heartbeat CPU 6 instructions: 210000000 cycles: 154407424 heartbeat IPC: 0.229783 cumulative IPC: 0.229783 (Simulation time: 69 hr 3 min 43 sec) 
 Total Blocks : 262144 Invalid Blocks : 0
Heartbeat CPU 1 instructions: 220000000 cycles: 203572708 heartbeat IPC: 0.201507 cumulative IPC: 0.215501 (Simulation time: 71 hr 39 min 3 sec) 
 Total Blocks : 262144 Invalid Blocks : 0
Heartbeat CPU 0 instructions: 220000000 cycles: 203594663 heartbeat IPC: 0.201383 cumulative IPC: 0.215427 (Simulation time: 71 hr 39 min 9 sec) 
 Total Blocks : 262144 Invalid Blocks : 0
Heartbeat CPU 3 instructions: 220000000 cycles: 204393947 heartbeat IPC: 0.198321 cumulative IPC: 0.213703 (Simulation time: 71 hr 42 min 24 sec) 
 Total Blocks : 262144 Invalid Blocks : 0
Heartbeat CPU 2 instructions: 220000000 cycles: 204407570 heartbeat IPC: 0.198314 cumulative IPC: 0.213679 (Simulation time: 71 hr 42 min 26 sec) 
 Total Blocks : 262144 Invalid Blocks : 0
Heartbeat CPU 4 instructions: 220000000 cycles: 204784743 heartbeat IPC: 0.197692 cumulative IPC: 0.212797 (Simulation time: 71 hr 43 min 45 sec) 
 Total Blocks : 262144 Invalid Blocks : 0
Heartbeat CPU 7 instructions: 220000000 cycles: 204796792 heartbeat IPC: 0.197732 cumulative IPC: 0.212879 (Simulation time: 71 hr 43 min 48 sec) 
 Total Blocks : 262144 Invalid Blocks : 0
Heartbeat CPU 5 instructions: 220000000 cycles: 204989649 heartbeat IPC: 0.197038 cumulative IPC: 0.212436 (Simulation time: 71 hr 44 min 20 sec) 
 Total Blocks : 262144 Invalid Blocks : 0
Heartbeat CPU 6 instructions: 220000000 cycles: 205130012 heartbeat IPC: 0.197151 cumulative IPC: 0.21222 (Simulation time: 71 hr 44 min 45 sec) 
 Total Blocks : 262144 Invalid Blocks : 0
Heartbeat CPU 1 instructions: 230000001 cycles: 250554442 heartbeat IPC: 0.212849 cumulative IPC: 0.214609 (Simulation time: 74 hr 12 min 10 sec) 
 Total Blocks : 262144 Invalid Blocks : 0
Heartbeat CPU 0 instructions: 230000001 cycles: 250636990 heartbeat IPC: 0.212575 cumulative IPC: 0.214467 (Simulation time: 74 hr 12 min 21 sec) 
 Total Blocks : 262144 Invalid Blocks : 0
Heartbeat CPU 2 instructions: 230000001 cycles: 252533507 heartbeat IPC: 0.207788 cumulative IPC: 0.211677 (Simulation time: 74 hr 15 min 54 sec) 
 Total Blocks : 262144 Invalid Blocks : 0
Heartbeat CPU 3 instructions: 230000001 cycles: 252542989 heartbeat IPC: 0.207688 cumulative IPC: 0.211659 (Simulation time: 74 hr 15 min 55 sec) 
 Total Blocks : 262144 Invalid Blocks : 0
Heartbeat CPU 5 instructions: 230000001 cycles: 253799985 heartbeat IPC: 0.204875 cumulative IPC: 0.209854 (Simulation time: 74 hr 17 min 47 sec) 
 Total Blocks : 262144 Invalid Blocks : 0
Heartbeat CPU 7 instructions: 230000001 cycles: 253825654 heartbeat IPC: 0.203962 cumulative IPC: 0.20982 (Simulation time: 74 hr 17 min 49 sec) 
 Total Blocks : 262144 Invalid Blocks : 0
Heartbeat CPU 4 instructions: 230000001 cycles: 254019443 heartbeat IPC: 0.203109 cumulative IPC: 0.209465 (Simulation time: 74 hr 18 min 3 sec) 
 Total Blocks : 262144 Invalid Blocks : 0
Heartbeat CPU 6 instructions: 230000001 cycles: 254184286 heartbeat IPC: 0.203856 cumulative IPC: 0.209357 (Simulation time: 74 hr 18 min 14 sec) 
 Total Blocks : 262144 Invalid Blocks : 0
Heartbeat CPU 1 instructions: 240000001 cycles: 299892654 heartbeat IPC: 0.202683 cumulative IPC: 0.211496 (Simulation time: 80 hr 19 min 50 sec) 
 Total Blocks : 262144 Invalid Blocks : 0
Heartbeat CPU 0 instructions: 240000001 cycles: 299912920 heartbeat IPC: 0.202939 cumulative IPC: 0.211462 (Simulation time: 80 hr 20 min 21 sec) 
 Total Blocks : 262144 Invalid Blocks : 0
Heartbeat CPU 3 instructions: 240000001 cycles: 301108198 heartbeat IPC: 0.205909 cumulative IPC: 0.210191 (Simulation time: 80 hr 51 min 2 sec) 
 Total Blocks : 262144 Invalid Blocks : 0
Heartbeat CPU 2 instructions: 240000001 cycles: 301145800 heartbeat IPC: 0.205709 cumulative IPC: 0.210153 (Simulation time: 80 hr 52 min 2 sec) 
 Total Blocks : 262144 Invalid Blocks : 0
Heartbeat CPU 5 instructions: 240000001 cycles: 301476503 heartbeat IPC: 0.209747 cumulative IPC: 0.209827 (Simulation time: 81 hr 0 min 29 sec) 
 Total Blocks : 262144 Invalid Blocks : 0
Heartbeat CPU 7 instructions: 240000001 cycles: 301545323 heartbeat IPC: 0.209557 cumulative IPC: 0.209754 (Simulation time: 81 hr 2 min 21 sec) 
 Total Blocks : 262144 Invalid Blocks : 0
Heartbeat CPU 4 instructions: 240000001 cycles: 301849091 heartbeat IPC: 0.209075 cumulative IPC: 0.209367 (Simulation time: 81 hr 10 min 6 sec) 
 Total Blocks : 262144 Invalid Blocks : 0
Heartbeat CPU 6 instructions: 240000001 cycles: 301910267 heartbeat IPC: 0.209529 cumulative IPC: 0.2094 (Simulation time: 81 hr 11 min 43 sec) 
 Total Blocks : 262144 Invalid Blocks : 0
Heartbeat CPU 1 instructions: 250000000 cycles: 330410325 heartbeat IPC: 0.327679 cumulative IPC: 0.227647 (Simulation time: 94 hr 49 min 42 sec) 
 Total Blocks : 262144 Invalid Blocks : 0
Heartbeat CPU 0 instructions: 250000000 cycles: 330471606 heartbeat IPC: 0.327239 cumulative IPC: 0.227574 (Simulation time: 94 hr 51 min 37 sec) 
 Total Blocks : 262144 Invalid Blocks : 0
Heartbeat CPU 3 instructions: 250000000 cycles: 331646037 heartbeat IPC: 0.327463 cumulative IPC: 0.226413 (Simulation time: 95 hr 28 min 3 sec) 
 Total Blocks : 262144 Invalid Blocks : 0
Heartbeat CPU 2 instructions: 250000000 cycles: 331726339 heartbeat IPC: 0.327005 cumulative IPC: 0.226334 (Simulation time: 95 hr 30 min 29 sec) 
 Total Blocks : 262144 Invalid Blocks : 0
Heartbeat CPU 5 instructions: 250000000 cycles: 332006113 heartbeat IPC: 0.327551 cumulative IPC: 0.226081 (Simulation time: 95 hr 38 min 53 sec) 
 Total Blocks : 262144 Invalid Blocks : 0
Heartbeat CPU 7 instructions: 250000000 cycles: 332045234 heartbeat IPC: 0.32787 cumulative IPC: 0.226044 (Simulation time: 95 hr 40 min 7 sec) 
 Total Blocks : 262144 Invalid Blocks : 0
Heartbeat CPU 4 instructions: 250000000 cycles: 332353374 heartbeat IPC: 0.327823 cumulative IPC: 0.225683 (Simulation time: 95 hr 49 min 27 sec) 
 Total Blocks : 262144 Invalid Blocks : 0
Heartbeat CPU 6 instructions: 250000000 cycles: 332420043 heartbeat IPC: 0.327764 cumulative IPC: 0.225701 (Simulation time: 95 hr 51 min 30 sec) 
 Total Blocks : 262144 Invalid Blocks : 0
Heartbeat CPU 1 instructions: 260000001 cycles: 361268771 heartbeat IPC: 0.32406 cumulative IPC: 0.23953 (Simulation time: 111 hr 24 min 55 sec) 
 Total Blocks : 262144 Invalid Blocks : 0
Heartbeat CPU 0 instructions: 260000001 cycles: 361294466 heartbeat IPC: 0.324435 cumulative IPC: 0.239497 (Simulation time: 111 hr 25 min 45 sec) 
 Total Blocks : 262144 Invalid Blocks : 0
Heartbeat CPU 3 instructions: 260000001 cycles: 362325211 heartbeat IPC: 0.325954 cumulative IPC: 0.238559 (Simulation time: 111 hr 58 min 54 sec) 
 Total Blocks : 262144 Invalid Blocks : 0
Heartbeat CPU 2 instructions: 260000001 cycles: 362417272 heartbeat IPC: 0.325829 cumulative IPC: 0.238474 (Simulation time: 112 hr 1 min 53 sec) 
 Total Blocks : 262144 Invalid Blocks : 0
Heartbeat CPU 5 instructions: 260000001 cycles: 362795754 heartbeat IPC: 0.324785 cumulative IPC: 0.238145 (Simulation time: 112 hr 14 min 2 sec) 
 Total Blocks : 262144 Invalid Blocks : 0
Heartbeat CPU 7 instructions: 260000001 cycles: 362822490 heartbeat IPC: 0.324915 cumulative IPC: 0.238122 (Simulation time: 112 hr 14 min 55 sec) 
 Total Blocks : 262144 Invalid Blocks : 0
Heartbeat CPU 4 instructions: 260000001 cycles: 363096561 heartbeat IPC: 0.325275 cumulative IPC: 0.237823 (Simulation time: 112 hr 23 min 44 sec) 
 Total Blocks : 262144 Invalid Blocks : 0
Heartbeat CPU 6 instructions: 260000000 cycles: 363207102 heartbeat IPC: 0.324812 cumulative IPC: 0.237794 (Simulation time: 112 hr 27 min 14 sec) 
 Total Blocks : 262144 Invalid Blocks : 0
Heartbeat CPU 1 instructions: 270000000 cycles: 392921402 heartbeat IPC: 0.315929 cumulative IPC: 0.248104 (Simulation time: 126 hr 56 min 45 sec) 
 Total Blocks : 262144 Invalid Blocks : 0
Heartbeat CPU 0 instructions: 270000000 cycles: 392940922 heartbeat IPC: 0.315991 cumulative IPC: 0.248079 (Simulation time: 126 hr 57 min 19 sec) 
 Total Blocks : 262144 Invalid Blocks : 0
Heartbeat CPU 3 instructions: 270000000 cycles: 393763078 heartbeat IPC: 0.318088 cumulative IPC: 0.247397 (Simulation time: 127 hr 20 min 34 sec) 
 Total Blocks : 262144 Invalid Blocks : 0
Heartbeat CPU 2 instructions: 270000000 cycles: 393817290 heartbeat IPC: 0.318471 cumulative IPC: 0.247352 (Simulation time: 127 hr 22 min 1 sec) 
 Total Blocks : 262144 Invalid Blocks : 0
Heartbeat CPU 5 instructions: 270000000 cycles: 394139074 heartbeat IPC: 0.319047 cumulative IPC: 0.247097 (Simulation time: 127 hr 31 min 11 sec) 
 Total Blocks : 262144 Invalid Blocks : 0
Heartbeat CPU 7 instructions: 270000000 cycles: 394181605 heartbeat IPC: 0.318887 cumulative IPC: 0.247062 (Simulation time: 127 hr 32 min 16 sec) 
 Total Blocks : 262144 Invalid Blocks : 0
Heartbeat CPU 4 instructions: 270000000 cycles: 394374966 heartbeat IPC: 0.319709 cumulative IPC: 0.246858 (Simulation time: 127 hr 37 min 33 sec) 
 Total Blocks : 262144 Invalid Blocks : 0
Heartbeat CPU 6 instructions: 270000000 cycles: 394491186 heartbeat IPC: 0.319651 cumulative IPC: 0.246824 (Simulation time: 127 hr 40 min 54 sec) 
 Total Blocks : 262144 Invalid Blocks : 0
Heartbeat CPU 1 instructions: 280000000 cycles: 425186463 heartbeat IPC: 0.309933 cumulative IPC: 0.254451 (Simulation time: 141 hr 31 min 31 sec) 
 Total Blocks : 262144 Invalid Blocks : 0
Heartbeat CPU 0 instructions: 280000000 cycles: 425237132 heartbeat IPC: 0.309634 cumulative IPC: 0.254404 (Simulation time: 141 hr 32 min 26 sec) 
 Total Blocks : 262144 Invalid Blocks : 0
Heartbeat CPU 3 instructions: 280000000 cycles: 426247919 heartbeat IPC: 0.307836 cumulative IPC: 0.253623 (Simulation time: 141 hr 45 min 24 sec) 
 Total Blocks : 262144 Invalid Blocks : 0
Heartbeat CPU 2 instructions: 280000000 cycles: 426275280 heartbeat IPC: 0.308091 cumulative IPC: 0.253603 (Simulation time: 141 hr 45 min 32 sec) 
 Total Blocks : 262144 Invalid Blocks : 0
Heartbeat CPU 5 instructions: 280000000 cycles: 426667552 heartbeat IPC: 0.307423 cumulative IPC: 0.253312 (Simulation time: 141 hr 46 min 53 sec) 
 Total Blocks : 262144 Invalid Blocks : 0
Heartbeat CPU 7 instructions: 280000000 cycles: 426766175 heartbeat IPC: 0.306894 cumulative IPC: 0.253234 (Simulation time: 141 hr 46 min 55 sec) 
 Total Blocks : 262144 Invalid Blocks : 0
Heartbeat CPU 4 instructions: 280000000 cycles: 427032034 heartbeat IPC: 0.306212 cumulative IPC: 0.252989 (Simulation time: 141 hr 47 min 0 sec) 
 Total Blocks : 262144 Invalid Blocks : 0
Heartbeat CPU 6 instructions: 280000000 cycles: 427232973 heartbeat IPC: 0.30542 cumulative IPC: 0.252889 (Simulation time: 141 hr 47 min 4 sec) 
 Total Blocks : 262144 Invalid Blocks : 0
Heartbeat CPU 1 instructions: 290000000 cycles: 468868201 heartbeat IPC: 0.228929 cumulative IPC: 0.251337 (Simulation time: 143 hr 15 min 15 sec) 
 Total Blocks : 262144 Invalid Blocks : 0
Heartbeat CPU 0 instructions: 290000000 cycles: 468956750 heartbeat IPC: 0.22873 cumulative IPC: 0.251269 (Simulation time: 143 hr 15 min 58 sec) 
 Total Blocks : 262144 Invalid Blocks : 0
Heartbeat CPU 3 instructions: 290000000 cycles: 469326523 heartbeat IPC: 0.232134 cumulative IPC: 0.25104 (Simulation time: 143 hr 18 min 23 sec) 
 Total Blocks : 262144 Invalid Blocks : 0
Heartbeat CPU 2 instructions: 290000000 cycles: 469329200 heartbeat IPC: 0.232267 cumulative IPC: 0.25104 (Simulation time: 143 hr 18 min 25 sec) 
 Total Blocks : 262144 Invalid Blocks : 0
Heartbeat CPU 5 instructions: 290000000 cycles: 470194645 heartbeat IPC: 0.229742 cumulative IPC: 0.250456 (Simulation time: 143 hr 21 min 31 sec) 
 Total Blocks : 262144 Invalid Blocks : 0
Heartbeat CPU 7 instructions: 290000000 cycles: 470296868 heartbeat IPC: 0.229723 cumulative IPC: 0.250387 (Simulation time: 143 hr 21 min 49 sec) 
 Total Blocks : 262144 Invalid Blocks : 0
Heartbeat CPU 4 instructions: 290000000 cycles: 470491758 heartbeat IPC: 0.230098 cumulative IPC: 0.250223 (Simulation time: 143 hr 22 min 15 sec) 
 Total Blocks : 262144 Invalid Blocks : 0
Heartbeat CPU 6 instructions: 290000000 cycles: 470588635 heartbeat IPC: 0.23065 cumulative IPC: 0.250208 (Simulation time: 143 hr 22 min 28 sec) 
 Total Blocks : 262144 Invalid Blocks : 0
Heartbeat CPU 1 instructions: 300000001 cycles: 514718859 heartbeat IPC: 0.218099 cumulative IPC: 0.247563 (Simulation time: 144 hr 29 min 37 sec) 
 Total Blocks : 262144 Invalid Blocks : 0
Heartbeat CPU 3 instructions: 300000001 cycles: 514748283 heartbeat IPC: 0.220159 cumulative IPC: 0.247567 (Simulation time: 144 hr 29 min 44 sec) 
 Total Blocks : 262144 Invalid Blocks : 0
Heartbeat CPU 0 instructions: 300000001 cycles: 515124564 heartbeat IPC: 0.216601 cumulative IPC: 0.247309 (Simulation time: 144 hr 31 min 0 sec) 
 Total Blocks : 262144 Invalid Blocks : 0
Heartbeat CPU 2 instructions: 300000001 cycles: 515214767 heartbeat IPC: 0.217933 cumulative IPC: 0.247283 (Simulation time: 144 hr 31 min 22 sec) 
 Total Blocks : 262144 Invalid Blocks : 0
Heartbeat CPU 4 instructions: 300000001 cycles: 515567319 heartbeat IPC: 0.22185 cumulative IPC: 0.247062 (Simulation time: 144 hr 32 min 36 sec) 
 Total Blocks : 262144 Invalid Blocks : 0
Heartbeat CPU 5 instructions: 300000001 cycles: 515570047 heartbeat IPC: 0.220384 cumulative IPC: 0.247084 (Simulation time: 144 hr 32 min 37 sec) 
 Total Blocks : 262144 Invalid Blocks : 0
Heartbeat CPU 6 instructions: 300000001 cycles: 515574345 heartbeat IPC: 0.222293 cumulative IPC: 0.247105 (Simulation time: 144 hr 32 min 38 sec) 
 Total Blocks : 262144 Invalid Blocks : 0
Heartbeat CPU 7 instructions: 300000001 cycles: 515684697 heartbeat IPC: 0.220323 cumulative IPC: 0.247016 (Simulation time: 144 hr 32 min 58 sec) 
 Total Blocks : 262144 Invalid Blocks : 0
Heartbeat CPU 1 instructions: 310000001 cycles: 570855733 heartbeat IPC: 0.178136 cumulative IPC: 0.23909 (Simulation time: 145 hr 32 min 22 sec) 
 Total Blocks : 262144 Invalid Blocks : 0
Heartbeat CPU 3 instructions: 310000001 cycles: 570872252 heartbeat IPC: 0.178177 cumulative IPC: 0.239101 (Simulation time: 145 hr 32 min 23 sec) 
 Total Blocks : 262144 Invalid Blocks : 0
Heartbeat CPU 2 instructions: 310000001 cycles: 571561456 heartbeat IPC: 0.177473 cumulative IPC: 0.238744 (Simulation time: 145 hr 33 min 6 sec) 
 Total Blocks : 262144 Invalid Blocks : 0
Heartbeat CPU 0 instructions: 310000001 cycles: 571562765 heartbeat IPC: 0.177185 cumulative IPC: 0.238718 (Simulation time: 145 hr 33 min 6 sec) 
 Total Blocks : 262144 Invalid Blocks : 0
Heartbeat CPU 6 instructions: 310000001 cycles: 571771679 heartbeat IPC: 0.177944 cumulative IPC: 0.238672 (Simulation time: 145 hr 33 min 33 sec) 
 Total Blocks : 262144 Invalid Blocks : 0
Heartbeat CPU 4 instructions: 310000001 cycles: 571794709 heartbeat IPC: 0.177849 cumulative IPC: 0.238619 (Simulation time: 145 hr 33 min 39 sec) 
 Total Blocks : 262144 Invalid Blocks : 0
Heartbeat CPU 7 instructions: 310000001 cycles: 571834253 heartbeat IPC: 0.178096 cumulative IPC: 0.23862 (Simulation time: 145 hr 33 min 45 sec) 
 Total Blocks : 262144 Invalid Blocks : 0
Heartbeat CPU 5 instructions: 310000001 cycles: 571839651 heartbeat IPC: 0.177716 cumulative IPC: 0.238616 (Simulation time: 145 hr 33 min 47 sec) 
 Total Blocks : 262144 Invalid Blocks : 0
Heartbeat CPU 1 instructions: 320000001 cycles: 635435502 heartbeat IPC: 0.154847 cumulative IPC: 0.228718 (Simulation time: 146 hr 34 min 21 sec) 
 Total Blocks : 262144 Invalid Blocks : 0
Heartbeat CPU 3 instructions: 320000001 cycles: 635441778 heartbeat IPC: 0.154872 cumulative IPC: 0.228732 (Simulation time: 146 hr 34 min 23 sec) 
 Total Blocks : 262144 Invalid Blocks : 0
Heartbeat CPU 2 instructions: 320000001 cycles: 635908045 heartbeat IPC: 0.155408 cumulative IPC: 0.228531 (Simulation time: 146 hr 36 min 13 sec) 
 Total Blocks : 262144 Invalid Blocks : 0
Heartbeat CPU 0 instructions: 320000001 cycles: 635910542 heartbeat IPC: 0.155406 cumulative IPC: 0.228507 (Simulation time: 146 hr 36 min 13 sec) 
 Total Blocks : 262144 Invalid Blocks : 0
Heartbeat CPU 4 instructions: 320000001 cycles: 636638480 heartbeat IPC: 0.154217 cumulative IPC: 0.228209 (Simulation time: 146 hr 39 min 32 sec) 
 Total Blocks : 262144 Invalid Blocks : 0
Heartbeat CPU 6 instructions: 320000001 cycles: 636670986 heartbeat IPC: 0.154085 cumulative IPC: 0.228231 (Simulation time: 146 hr 39 min 39 sec) 
 Total Blocks : 262144 Invalid Blocks : 0
Heartbeat CPU 5 instructions: 320000001 cycles: 637231800 heartbeat IPC: 0.152924 cumulative IPC: 0.22797 (Simulation time: 146 hr 42 min 13 sec) 
 Total Blocks : 262144 Invalid Blocks : 0
Heartbeat CPU 7 instructions: 320000001 cycles: 637333088 heartbeat IPC: 0.152674 cumulative IPC: 0.227927 (Simulation time: 146 hr 42 min 39 sec) 
 Total Blocks : 262144 Invalid Blocks : 0
Heartbeat CPU 1 instructions: 330000000 cycles: 686420857 heartbeat IPC: 0.196135 cumulative IPC: 0.225832 (Simulation time: 148 hr 29 min 18 sec) 
 Total Blocks : 262144 Invalid Blocks : 0
Heartbeat CPU 3 instructions: 330000000 cycles: 686464671 heartbeat IPC: 0.19599 cumulative IPC: 0.22583 (Simulation time: 148 hr 29 min 37 sec) 
 Total Blocks : 262144 Invalid Blocks : 0
Heartbeat CPU 2 instructions: 330000000 cycles: 686620604 heartbeat IPC: 0.19719 cumulative IPC: 0.22577 (Simulation time: 148 hr 30 min 25 sec) 
 Total Blocks : 262144 Invalid Blocks : 0
Heartbeat CPU 0 instructions: 330000000 cycles: 686754703 heartbeat IPC: 0.196679 cumulative IPC: 0.225697 (Simulation time: 148 hr 31 min 11 sec) 
 Total Blocks : 262144 Invalid Blocks : 0
Heartbeat CPU 6 instructions: 330000000 cycles: 687183668 heartbeat IPC: 0.19797 cumulative IPC: 0.225579 (Simulation time: 148 hr 36 min 21 sec) 
 Total Blocks : 262144 Invalid Blocks : 0
Heartbeat CPU 4 instructions: 330000000 cycles: 687234276 heartbeat IPC: 0.197645 cumulative IPC: 0.225526 (Simulation time: 148 hr 37 min 11 sec) 
 Total Blocks : 262144 Invalid Blocks : 0
Heartbeat CPU 5 instructions: 330000000 cycles: 687823436 heartbeat IPC: 0.197661 cumulative IPC: 0.225312 (Simulation time: 148 hr 44 min 51 sec) 
 Total Blocks : 262144 Invalid Blocks : 0
Heartbeat CPU 7 instructions: 330000000 cycles: 687841380 heartbeat IPC: 0.197987 cumulative IPC: 0.225306 (Simulation time: 148 hr 45 min 3 sec) 
 Total Blocks : 262144 Invalid Blocks : 0
Heartbeat CPU 1 instructions: 340000000 cycles: 723303557 heartbeat IPC: 0.27113 cumulative IPC: 0.22856 (Simulation time: 150 hr 56 min 42 sec) 
 Total Blocks : 262144 Invalid Blocks : 0
Heartbeat CPU 3 instructions: 340000000 cycles: 723620922 heartbeat IPC: 0.269134 cumulative IPC: 0.228456 (Simulation time: 150 hr 56 min 52 sec) 
 Total Blocks : 262144 Invalid Blocks : 0
Heartbeat CPU 2 instructions: 340000000 cycles: 723783693 heartbeat IPC: 0.269084 cumulative IPC: 0.228396 (Simulation time: 150 hr 56 min 57 sec) 
 Total Blocks : 262144 Invalid Blocks : 0
Heartbeat CPU 0 instructions: 340000000 cycles: 723975286 heartbeat IPC: 0.268669 cumulative IPC: 0.228306 (Simulation time: 150 hr 57 min 2 sec) 
 Total Blocks : 262144 Invalid Blocks : 0
Heartbeat CPU 6 instructions: 340000000 cycles: 724287165 heartbeat IPC: 0.269516 cumulative IPC: 0.228236 (Simulation time: 150 hr 57 min 10 sec) 
 Total Blocks : 262144 Invalid Blocks : 0
Heartbeat CPU 4 instructions: 340000000 cycles: 724325623 heartbeat IPC: 0.269605 cumulative IPC: 0.228191 (Simulation time: 150 hr 57 min 11 sec) 
 Total Blocks : 262144 Invalid Blocks : 0
Heartbeat CPU 5 instructions: 340000000 cycles: 724534168 heartbeat IPC: 0.2724 cumulative IPC: 0.228129 (Simulation time: 150 hr 57 min 16 sec) 
 Total Blocks : 262144 Invalid Blocks : 0
Heartbeat CPU 7 instructions: 340000000 cycles: 724599501 heartbeat IPC: 0.272049 cumulative IPC: 0.228106 (Simulation time: 150 hr 57 min 18 sec) 
 Total Blocks : 262144 Invalid Blocks : 0
Heartbeat CPU 3 instructions: 350000003 cycles: 790868666 heartbeat IPC: 0.148704 cumulative IPC: 0.220569 (Simulation time: 152 hr 3 min 48 sec) 
 Total Blocks : 262144 Invalid Blocks : 0
Heartbeat CPU 1 instructions: 350000003 cycles: 790881274 heartbeat IPC: 0.147978 cumulative IPC: 0.220552 (Simulation time: 152 hr 3 min 48 sec) 
 Total Blocks : 262144 Invalid Blocks : 0
Heartbeat CPU 6 instructions: 350000003 cycles: 791928725 heartbeat IPC: 0.147838 cumulative IPC: 0.220251 (Simulation time: 152 hr 4 min 11 sec) 
 Total Blocks : 262144 Invalid Blocks : 0
Heartbeat CPU 2 instructions: 350000003 cycles: 792053923 heartbeat IPC: 0.146477 cumulative IPC: 0.220186 (Simulation time: 152 hr 4 min 15 sec) 
 Total Blocks : 262144 Invalid Blocks : 0
Heartbeat CPU 0 instructions: 350000003 cycles: 792237397 heartbeat IPC: 0.146494 cumulative IPC: 0.22011 (Simulation time: 152 hr 4 min 20 sec) 
 Total Blocks : 262144 Invalid Blocks : 0
Heartbeat CPU 4 instructions: 350000003 cycles: 792239162 heartbeat IPC: 0.147246 cumulative IPC: 0.220123 (Simulation time: 152 hr 4 min 21 sec) 
 Total Blocks : 262144 Invalid Blocks : 0
Heartbeat CPU 5 instructions: 350000003 cycles: 792476756 heartbeat IPC: 0.147183 cumulative IPC: 0.22006 (Simulation time: 152 hr 4 min 26 sec) 
 Total Blocks : 262144 Invalid Blocks : 0
Heartbeat CPU 7 instructions: 350000003 cycles: 792718900 heartbeat IPC: 0.146801 cumulative IPC: 0.219983 (Simulation time: 152 hr 4 min 31 sec) 
 Total Blocks : 262144 Invalid Blocks : 0
Heartbeat CPU 1 instructions: 360000001 cycles: 854490314 heartbeat IPC: 0.15721 cumulative IPC: 0.215133 (Simulation time: 153 hr 28 min 38 sec) 
 Total Blocks : 262144 Invalid Blocks : 0
Heartbeat CPU 3 instructions: 360000001 cycles: 854494552 heartbeat IPC: 0.157169 cumulative IPC: 0.215144 (Simulation time: 153 hr 28 min 38 sec) 
 Total Blocks : 262144 Invalid Blocks : 0
Heartbeat CPU 6 instructions: 360000001 cycles: 856493224 heartbeat IPC: 0.154884 cumulative IPC: 0.214591 (Simulation time: 153 hr 31 min 31 sec) 
 Total Blocks : 262144 Invalid Blocks : 0
Heartbeat CPU 0 instructions: 360000001 cycles: 856582305 heartbeat IPC: 0.155412 cumulative IPC: 0.214527 (Simulation time: 153 hr 31 min 44 sec) 
 Total Blocks : 262144 Invalid Blocks : 0
Heartbeat CPU 2 instructions: 360000001 cycles: 857013281 heartbeat IPC: 0.153942 cumulative IPC: 0.214419 (Simulation time: 153 hr 33 min 4 sec) 
 Total Blocks : 262144 Invalid Blocks : 0
Heartbeat CPU 4 instructions: 360000001 cycles: 857101175 heartbeat IPC: 0.154173 cumulative IPC: 0.21439 (Simulation time: 153 hr 33 min 19 sec) 
 Total Blocks : 262144 Invalid Blocks : 0
Heartbeat CPU 5 instructions: 360000001 cycles: 857144128 heartbeat IPC: 0.154637 cumulative IPC: 0.214391 (Simulation time: 153 hr 33 min 23 sec) 
 Total Blocks : 262144 Invalid Blocks : 0
Heartbeat CPU 7 instructions: 360000001 cycles: 857242682 heartbeat IPC: 0.154982 cumulative IPC: 0.214363 (Simulation time: 153 hr 33 min 38 sec) 
 Total Blocks : 262144 Invalid Blocks : 0
Heartbeat CPU 1 instructions: 370000003 cycles: 899889291 heartbeat IPC: 0.220269 cumulative IPC: 0.215429 (Simulation time: 154 hr 46 min 32 sec) 
 Total Blocks : 262144 Invalid Blocks : 0
Heartbeat CPU 3 instructions: 370000003 cycles: 899896997 heartbeat IPC: 0.220252 cumulative IPC: 0.215438 (Simulation time: 154 hr 46 min 36 sec) 
 Total Blocks : 262144 Invalid Blocks : 0
Heartbeat CPU 2 instructions: 370000003 cycles: 905561844 heartbeat IPC: 0.205979 cumulative IPC: 0.213903 (Simulation time: 154 hr 57 min 46 sec) 
 Total Blocks : 262144 Invalid Blocks : 0
Heartbeat CPU 6 instructions: 370000003 cycles: 905606104 heartbeat IPC: 0.203613 cumulative IPC: 0.213912 (Simulation time: 154 hr 57 min 48 sec) 
 Total Blocks : 262144 Invalid Blocks : 0
Heartbeat CPU 0 instructions: 370000003 cycles: 905874207 heartbeat IPC: 0.202873 cumulative IPC: 0.213804 (Simulation time: 154 hr 57 min 59 sec) 
 Total Blocks : 262144 Invalid Blocks : 0
Heartbeat CPU 4 instructions: 370000003 cycles: 906073218 heartbeat IPC: 0.204198 cumulative IPC: 0.213763 (Simulation time: 154 hr 58 min 7 sec) 
 Total Blocks : 262144 Invalid Blocks : 0
Heartbeat CPU 7 instructions: 370000003 cycles: 906159014 heartbeat IPC: 0.204431 cumulative IPC: 0.213753 (Simulation time: 154 hr 58 min 11 sec) 
 Total Blocks : 262144 Invalid Blocks : 0
Heartbeat CPU 5 instructions: 370000003 cycles: 906460840 heartbeat IPC: 0.202771 cumulative IPC: 0.213671 (Simulation time: 154 hr 58 min 19 sec) 
 Total Blocks : 262144 Invalid Blocks : 0
Heartbeat CPU 1 instructions: 380000000 cycles: 942051737 heartbeat IPC: 0.237178 cumulative IPC: 0.216532 (Simulation time: 156 hr 27 min 1 sec) 
 Total Blocks : 262144 Invalid Blocks : 0
Heartbeat CPU 3 instructions: 380000000 cycles: 942135959 heartbeat IPC: 0.236748 cumulative IPC: 0.216521 (Simulation time: 156 hr 27 min 4 sec) 
 Total Blocks : 262144 Invalid Blocks : 0
Heartbeat CPU 2 instructions: 380000000 cycles: 952504267 heartbeat IPC: 0.213027 cumulative IPC: 0.213854 (Simulation time: 156 hr 34 min 53 sec) 
 Total Blocks : 262144 Invalid Blocks : 0
Heartbeat CPU 6 instructions: 380000000 cycles: 952615532 heartbeat IPC: 0.212723 cumulative IPC: 0.213846 (Simulation time: 156 hr 34 min 55 sec) 
 Total Blocks : 262144 Invalid Blocks : 0
Heartbeat CPU 0 instructions: 380000000 cycles: 952624433 heartbeat IPC: 0.213903 cumulative IPC: 0.21381 (Simulation time: 156 hr 34 min 55 sec) 
 Total Blocks : 262144 Invalid Blocks : 0
Heartbeat CPU 7 instructions: 380000000 cycles: 952640159 heartbeat IPC: 0.215141 cumulative IPC: 0.213829 (Simulation time: 156 hr 34 min 55 sec) 
 Total Blocks : 262144 Invalid Blocks : 0
Heartbeat CPU 4 instructions: 380000000 cycles: 953778629 heartbeat IPC: 0.20962 cumulative IPC: 0.213528 (Simulation time: 156 hr 35 min 19 sec) 
 Total Blocks : 262144 Invalid Blocks : 0
Heartbeat CPU 5 instructions: 380000000 cycles: 954018271 heartbeat IPC: 0.210272 cumulative IPC: 0.213479 (Simulation time: 156 hr 35 min 23 sec) 
 Total Blocks : 262144 Invalid Blocks : 0
Heartbeat CPU 1 instructions: 390000000 cycles: 992919864 heartbeat IPC: 0.196587 cumulative IPC: 0.215382 (Simulation time: 157 hr 25 min 10 sec) 
 Total Blocks : 262144 Invalid Blocks : 0
Heartbeat CPU 3 instructions: 390000000 cycles: 993236086 heartbeat IPC: 0.195694 cumulative IPC: 0.215315 (Simulation time: 157 hr 25 min 55 sec) 
 Total Blocks : 262144 Invalid Blocks : 0
Heartbeat CPU 2 instructions: 390000000 cycles: 1005299206 heartbeat IPC: 0.189412 cumulative IPC: 0.212411 (Simulation time: 157 hr 39 min 1 sec) 
 Total Blocks : 262144 Invalid Blocks : 0
Heartbeat CPU 0 instructions: 390000000 cycles: 1005351540 heartbeat IPC: 0.189656 cumulative IPC: 0.212386 (Simulation time: 157 hr 39 min 11 sec) 
 Total Blocks : 262144 Invalid Blocks : 0
Heartbeat CPU 6 instructions: 390000000 cycles: 1005728054 heartbeat IPC: 0.18828 cumulative IPC: 0.212328 (Simulation time: 157 hr 41 min 25 sec) 
 Total Blocks : 262144 Invalid Blocks : 0
Heartbeat CPU 7 instructions: 390000000 cycles: 1005815132 heartbeat IPC: 0.188058 cumulative IPC: 0.212298 (Simulation time: 157 hr 41 min 50 sec) 
 Total Blocks : 262144 Invalid Blocks : 0
Heartbeat CPU 4 instructions: 390000000 cycles: 1006229841 heartbeat IPC: 0.190653 cumulative IPC: 0.212188 (Simulation time: 157 hr 44 min 21 sec) 
 Total Blocks : 262144 Invalid Blocks : 0
Heartbeat CPU 5 instructions: 390000000 cycles: 1006268293 heartbeat IPC: 0.191387 cumulative IPC: 0.21219 (Simulation time: 157 hr 44 min 31 sec) 
 Total Blocks : 262144 Invalid Blocks : 0
Heartbeat CPU 1 instructions: 400000000 cycles: 1047854632 heartbeat IPC: 0.182034 cumulative IPC: 0.213427 (Simulation time: 159 hr 0 min 31 sec) 
 Total Blocks : 262144 Invalid Blocks : 0
Finished CPU 1 instructions: 200000003 cycles: 937042921 cumulative IPC: 0.213437 (Simulation time: 159 hr 0 min 33 sec) 
Heartbeat CPU 3 instructions: 400000001 cycles: 1048114819 heartbeat IPC: 0.18222 cumulative IPC: 0.213377 (Simulation time: 159 hr 0 min 43 sec) 
 Total Blocks : 262144 Invalid Blocks : 0
Finished CPU 3 instructions: 200000003 cycles: 937279275 cumulative IPC: 0.213384 (Simulation time: 159 hr 0 min 46 sec) 
Heartbeat CPU 2 instructions: 400000001 cycles: 1062139595 heartbeat IPC: 0.175931 cumulative IPC: 0.210232 (Simulation time: 159 hr 9 min 18 sec) 
 Total Blocks : 262144 Invalid Blocks : 0
Heartbeat CPU 0 instructions: 400000001 cycles: 1062178032 heartbeat IPC: 0.175974 cumulative IPC: 0.210211 (Simulation time: 159 hr 9 min 20 sec) 
 Total Blocks : 262144 Invalid Blocks : 0
Finished CPU 2 instructions: 200000003 cycles: 951295165 cumulative IPC: 0.21024 (Simulation time: 159 hr 9 min 20 sec) 
Finished CPU 0 instructions: 200000002 cycles: 951369151 cumulative IPC: 0.210223 (Simulation time: 159 hr 9 min 22 sec) 
Heartbeat CPU 7 instructions: 400000001 cycles: 1062551872 heartbeat IPC: 0.176253 cumulative IPC: 0.210149 (Simulation time: 159 hr 9 min 44 sec) 
 Total Blocks : 262144 Invalid Blocks : 0
Heartbeat CPU 4 instructions: 400000000 cycles: 1062571003 heartbeat IPC: 0.17749 cumulative IPC: 0.210134 (Simulation time: 159 hr 9 min 45 sec) 
 Total Blocks : 262144 Invalid Blocks : 0
Finished CPU 7 instructions: 200000001 cycles: 951684275 cumulative IPC: 0.210154 (Simulation time: 159 hr 9 min 46 sec) 
Finished CPU 4 instructions: 200000002 cycles: 951735590 cumulative IPC: 0.210142 (Simulation time: 159 hr 9 min 50 sec) 
Heartbeat CPU 6 instructions: 400000001 cycles: 1062912754 heartbeat IPC: 0.174872 cumulative IPC: 0.210079 (Simulation time: 159 hr 10 min 24 sec) 
 Total Blocks : 262144 Invalid Blocks : 0
Finished CPU 6 instructions: 200000000 cycles: 952024583 cumulative IPC: 0.210079 (Simulation time: 159 hr 10 min 24 sec) 
Heartbeat CPU 5 instructions: 400000000 cycles: 1063052822 heartbeat IPC: 0.176104 cumulative IPC: 0.210038 (Simulation time: 159 hr 10 min 44 sec) 
 Total Blocks : 262144 Invalid Blocks : 0
Finished CPU 5 instructions: 200000002 cycles: 952188011 cumulative IPC: 0.210043 (Simulation time: 159 hr 10 min 46 sec) 

CPU 0 Branch Prediction Accuracy: 98.3209% MPKI: 2.86883 Average ROB Occupancy at Mispredict: 135.876

CPU 1 Branch Prediction Accuracy: 98.317% MPKI: 2.85242 Average ROB Occupancy at Mispredict: 136.828

CPU 2 Branch Prediction Accuracy: 98.3209% MPKI: 2.86879 Average ROB Occupancy at Mispredict: 135.891

CPU 3 Branch Prediction Accuracy: 98.3168% MPKI: 2.85284 Average ROB Occupancy at Mispredict: 136.819

CPU 4 Branch Prediction Accuracy: 98.3209% MPKI: 2.8702 Average ROB Occupancy at Mispredict: 135.807

CPU 5 Branch Prediction Accuracy: 98.3213% MPKI: 2.87126 Average ROB Occupancy at Mispredict: 135.741

CPU 6 Branch Prediction Accuracy: 98.3211% MPKI: 2.87128 Average ROB Occupancy at Mispredict: 135.759

CPU 7 Branch Prediction Accuracy: 98.3209% MPKI: 2.87019 Average ROB Occupancy at Mispredict: 135.818

ChampSim completed all CPUs

Total Simulation Statistics (not including warmup)

CPU 0 cumulative IPC: 0.210468 instructions: 200405052 cycles: 952188011
ITLB TOTAL     ACCESS: 49917997  HIT: 49917997  MISS:     0  HIT %:   100  MISS %:     0  AVERAGE MISS PENALTY: 0
ITLB LOAD      ACCESS: 49917997  HIT: 49917997  MISS:     0  HIT %:   100  MISS %:     0  AVERAGE MISS PENALTY: 0
ITLB RFO       ACCESS:     0  HIT:     0  MISS:     0  HIT %:     0  MISS %:     0  AVERAGE MISS PENALTY: 0
ITLB PREFETCH  ACCESS:     0  HIT:     0  MISS:     0  HIT %:     0  MISS %:     0  AVERAGE MISS PENALTY: 0
ITLB WRITEBACK ACCESS:     0  HIT:     0  MISS:     0  HIT %:     0  MISS %:     0  AVERAGE MISS PENALTY: 0

DTLB TOTAL     ACCESS: 60104653  HIT: 59240030  MISS: 864623  HIT %: 98.5615  MISS %: 1.43853  AVERAGE MISS PENALTY: 42.0263
DTLB LOAD      ACCESS: 45276433  HIT: 44429529  MISS: 846904  HIT %: 98.1295  MISS %: 1.87052  AVERAGE MISS PENALTY: 41.947
DTLB RFO       ACCESS: 14828220  HIT: 14810501  MISS: 17719  HIT %: 99.8805  MISS %: 0.119495  AVERAGE MISS PENALTY: 45.8166
DTLB PREFETCH  ACCESS:     0  HIT:     0  MISS:     0  HIT %:     0  MISS %:     0  AVERAGE MISS PENALTY: 0
DTLB WRITEBACK ACCESS:     0  HIT:     0  MISS:     0  HIT %:     0  MISS %:     0  AVERAGE MISS PENALTY: 0

STLB TOTAL     ACCESS: 864623  HIT: 581001  MISS: 283622  HIT %: 67.197  MISS %: 32.803  AVERAGE MISS PENALTY: 100
STLB LOAD      ACCESS: 846904  HIT: 569404  MISS: 277500  HIT %: 67.2336  MISS %: 32.7664  AVERAGE MISS PENALTY: 100
STLB RFO       ACCESS: 17719  HIT: 11597  MISS:  6122  HIT %: 65.4495  MISS %: 34.5505  AVERAGE MISS PENALTY: 100
STLB PREFETCH  ACCESS:     0  HIT:     0  MISS:     0  HIT %:     0  MISS %:     0  AVERAGE MISS PENALTY: 0
STLB WRITEBACK ACCESS:     0  HIT:     0  MISS:     0  HIT %:     0  MISS %:     0  AVERAGE MISS PENALTY: 0

L1D TOTAL     ACCESS: 100592808  HIT: 86613598  MISS: 13979210  HIT %: 86.1032  MISS %: 13.8968  AVERAGE MISS PENALTY: 1.43408e+08
L1D LOAD      ACCESS: 46736543  HIT: 38357953  MISS: 8378590  HIT %: 82.0727  MISS %: 17.9273  AVERAGE MISS PENALTY: 2.3875e+08
L1D RFO       ACCESS: 34589676  HIT: 34213882  MISS: 375794  HIT %: 98.9136  MISS %: 1.08643  AVERAGE MISS PENALTY: 1.15623e+07
L1D PREFETCH  ACCESS: 19266589  HIT: 14041763  MISS: 5224826  HIT %: 72.8814  MISS %: 27.1186  AVERAGE MISS PENALTY: 306.306
L1D WRITEBACK ACCESS:     0  HIT:     0  MISS:     0  HIT %:     0  MISS %:     0  AVERAGE MISS PENALTY: 0

L1I TOTAL     ACCESS: 62038702  HIT: 62038692  MISS:    10  HIT %:   100  MISS %: 1.6119e-05  AVERAGE MISS PENALTY: 585.9
L1I LOAD      ACCESS: 62038702  HIT: 62038692  MISS:    10  HIT %:   100  MISS %: 1.6119e-05  AVERAGE MISS PENALTY: 585.9
L1I RFO       ACCESS:     0  HIT:     0  MISS:     0  HIT %:     0  MISS %:     0  AVERAGE MISS PENALTY: 0
L1I PREFETCH  ACCESS:     0  HIT:     0  MISS:     0  HIT %:     0  MISS %:     0  AVERAGE MISS PENALTY: 0
L1I WRITEBACK ACCESS:     0  HIT:     0  MISS:     0  HIT %:     0  MISS %:     0  AVERAGE MISS PENALTY: 0

L2C TOTAL     ACCESS: 16404606  HIT: 2738573  MISS: 13666033  HIT %: 16.6939  MISS %: 83.3061  AVERAGE MISS PENALTY: 1.34353e+08
L2C LOAD      ACCESS: 8249817  HIT: 283240  MISS: 7966577  HIT %: 3.43329  MISS %: 96.5667  AVERAGE MISS PENALTY: 2.30452e+08
L2C RFO       ACCESS: 368600  HIT:  8918  MISS: 359682  HIT %: 2.41942  MISS %: 97.5806  AVERAGE MISS PENALTY: 427703
L2C PREFETCH  ACCESS: 6977718  HIT: 1647150  MISS: 5330568  HIT %: 23.6059  MISS %: 76.3941  AVERAGE MISS PENALTY: 380.871
L2C WRITEBACK ACCESS: 808471  HIT: 799265  MISS:  9206  HIT %: 98.8613  MISS %: 1.13869  AVERAGE MISS PENALTY: 0


LLC0 TOTAL     ACCESS: 1791072  HIT: 156370  MISS: 1634702  HIT %: 8.73053  MISS %: 91.2695  AVERAGE MISS PENALTY: 386.717
LLC0 LOAD      ACCESS: 593911  HIT: 33921  MISS: 559990  HIT %: 5.71146  MISS %: 94.2885  AVERAGE MISS PENALTY: 389.616
LLC0 RFO       ACCESS: 45506  HIT:    46  MISS: 45460  HIT %: 0.101086  MISS %: 99.8989  AVERAGE MISS PENALTY: 422.219
LLC0 PREFETCH  ACCESS: 1061713  HIT: 59518  MISS: 1002195  HIT %: 5.60585  MISS %: 94.3942  AVERAGE MISS PENALTY: 393.927
LLC0 WRITEBACK ACCESS: 89942  HIT: 62885  MISS: 27057  HIT %: 69.9173  MISS %: 30.0827  AVERAGE MISS PENALTY: 0

LLC1 TOTAL     ACCESS: 1799235  HIT: 154196  MISS: 1645039  HIT %: 8.57009  MISS %: 91.4299  AVERAGE MISS PENALTY: 391.838
LLC1 LOAD      ACCESS: 591129  HIT: 34392  MISS: 556737  HIT %: 5.81802  MISS %: 94.182  AVERAGE MISS PENALTY: 400.039
LLC1 RFO       ACCESS: 45069  HIT:   155  MISS: 44914  HIT %: 0.343917  MISS %: 99.6561  AVERAGE MISS PENALTY: 430.375
LLC1 PREFETCH  ACCESS: 1073518  HIT: 56889  MISS: 1016629  HIT %: 5.29931  MISS %: 94.7007  AVERAGE MISS PENALTY: 395.959
LLC1 WRITEBACK ACCESS: 89519  HIT: 62760  MISS: 26759  HIT %: 70.108  MISS %: 29.892  AVERAGE MISS PENALTY: 0

LLC2 TOTAL     ACCESS: 1804250  HIT: 154921  MISS: 1649329  HIT %: 8.58645  MISS %: 91.4136  AVERAGE MISS PENALTY: 396.484
LLC2 LOAD      ACCESS: 576753  HIT: 33631  MISS: 543122  HIT %: 5.83109  MISS %: 94.1689  AVERAGE MISS PENALTY: 408.485
LLC2 RFO       ACCESS: 44883  HIT:    48  MISS: 44835  HIT %: 0.106945  MISS %: 99.8931  AVERAGE MISS PENALTY: 419.677
LLC2 PREFETCH  ACCESS: 1093433  HIT: 58369  MISS: 1035064  HIT %: 5.33814  MISS %: 94.6619  AVERAGE MISS PENALTY: 399.259
LLC2 WRITEBACK ACCESS: 89181  HIT: 62873  MISS: 26308  HIT %: 70.5004  MISS %: 29.4996  AVERAGE MISS PENALTY: 0

LLC3 TOTAL     ACCESS: 1800128  HIT: 155722  MISS: 1644406  HIT %: 8.65061  MISS %: 91.3494  AVERAGE MISS PENALTY: 399.794
LLC3 LOAD      ACCESS: 580443  HIT: 34017  MISS: 546426  HIT %: 5.86052  MISS %: 94.1395  AVERAGE MISS PENALTY: 411.057
LLC3 RFO       ACCESS: 44887  HIT:    50  MISS: 44837  HIT %: 0.111391  MISS %: 99.8886  AVERAGE MISS PENALTY: 426.729
LLC3 PREFETCH  ACCESS: 1085973  HIT: 59046  MISS: 1026927  HIT %: 5.43715  MISS %: 94.5628  AVERAGE MISS PENALTY: 402.831
LLC3 WRITEBACK ACCESS: 88825  HIT: 62609  MISS: 26216  HIT %: 70.4858  MISS %: 29.5142  AVERAGE MISS PENALTY: 0

LLC4 TOTAL     ACCESS: 1797568  HIT: 156770  MISS: 1640798  HIT %: 8.72123  MISS %: 91.2788  AVERAGE MISS PENALTY: 393.084
LLC4 LOAD      ACCESS: 574705  HIT: 34929  MISS: 539776  HIT %: 6.07773  MISS %: 93.9223  AVERAGE MISS PENALTY: 409.763
LLC4 RFO       ACCESS: 44793  HIT:    30  MISS: 44763  HIT %: 0.0669748  MISS %: 99.933  AVERAGE MISS PENALTY: 429.019
LLC4 PREFETCH  ACCESS: 1089103  HIT: 58505  MISS: 1030598  HIT %: 5.37185  MISS %: 94.6281  AVERAGE MISS PENALTY: 392.575
LLC4 WRITEBACK ACCESS: 88967  HIT: 63306  MISS: 25661  HIT %: 71.1567  MISS %: 28.8433  AVERAGE MISS PENALTY: 0

LLC5 TOTAL     ACCESS: 1794678  HIT: 157959  MISS: 1636719  HIT %: 8.80152  MISS %: 91.1985  AVERAGE MISS PENALTY: 380.615
LLC5 LOAD      ACCESS: 580595  HIT: 37421  MISS: 543174  HIT %: 6.44528  MISS %: 93.5547  AVERAGE MISS PENALTY: 399.321
LLC5 RFO       ACCESS: 44783  HIT:    52  MISS: 44731  HIT %: 0.116115  MISS %: 99.8839  AVERAGE MISS PENALTY: 418.003
LLC5 PREFETCH  ACCESS: 1081211  HIT: 57709  MISS: 1023502  HIT %: 5.33744  MISS %: 94.6626  AVERAGE MISS PENALTY: 378.466
LLC5 WRITEBACK ACCESS: 88089  HIT: 62777  MISS: 25312  HIT %: 71.2654  MISS %: 28.7346  AVERAGE MISS PENALTY: 0

LLC6 TOTAL     ACCESS: 1793508  HIT: 159317  MISS: 1634191  HIT %: 8.88298  MISS %: 91.117  AVERAGE MISS PENALTY: 399.909
LLC6 LOAD      ACCESS: 587681  HIT: 39582  MISS: 548099  HIT %: 6.73529  MISS %: 93.2647  AVERAGE MISS PENALTY: 425.018
LLC6 RFO       ACCESS: 44769  HIT:    39  MISS: 44730  HIT %: 0.0871139  MISS %: 99.9129  AVERAGE MISS PENALTY: 425.149
LLC6 PREFETCH  ACCESS: 1072585  HIT: 56817  MISS: 1015768  HIT %: 5.2972  MISS %: 94.7028  AVERAGE MISS PENALTY: 395.325
LLC6 WRITEBACK ACCESS: 88473  HIT: 62879  MISS: 25594  HIT %: 71.0714  MISS %: 28.9286  AVERAGE MISS PENALTY: 0

LLC7 TOTAL     ACCESS: 1788250  HIT: 159760  MISS: 1628490  HIT %: 8.93387  MISS %: 91.0661  AVERAGE MISS PENALTY: 389.826
LLC7 LOAD      ACCESS: 604967  HIT: 42448  MISS: 562519  HIT %: 7.01658  MISS %: 92.9834  AVERAGE MISS PENALTY: 412.442
LLC7 RFO       ACCESS: 44746  HIT:    38  MISS: 44708  HIT %: 0.0849238  MISS %: 99.9151  AVERAGE MISS PENALTY: 414.557
LLC7 PREFETCH  ACCESS: 1049671  HIT: 55157  MISS: 994514  HIT %: 5.25469  MISS %: 94.7453  AVERAGE MISS PENALTY: 386.408
LLC7 WRITEBACK ACCESS: 88866  HIT: 62117  MISS: 26749  HIT %: 69.8996  MISS %: 30.1004  AVERAGE MISS PENALTY: 0

Total Rob stall cycles : 	914431156
Total Load Rob Stall cycles : 	562580747
Average Rob Stall cycles : 	 13
Average Load Rob Stall cycles : 	 58

CPU 1 cumulative IPC: 0.214779 instructions: 204510305 cycles: 952188011
ITLB TOTAL     ACCESS: 50835839  HIT: 50835839  MISS:     0  HIT %:   100  MISS %:     0  AVERAGE MISS PENALTY: 0
ITLB LOAD      ACCESS: 50835839  HIT: 50835839  MISS:     0  HIT %:   100  MISS %:     0  AVERAGE MISS PENALTY: 0
ITLB RFO       ACCESS:     0  HIT:     0  MISS:     0  HIT %:     0  MISS %:     0  AVERAGE MISS PENALTY: 0
ITLB PREFETCH  ACCESS:     0  HIT:     0  MISS:     0  HIT %:     0  MISS %:     0  AVERAGE MISS PENALTY: 0
ITLB WRITEBACK ACCESS:     0  HIT:     0  MISS:     0  HIT %:     0  MISS %:     0  AVERAGE MISS PENALTY: 0

DTLB TOTAL     ACCESS: 61399633  HIT: 60523427  MISS: 876206  HIT %: 98.5729  MISS %: 1.42705  AVERAGE MISS PENALTY: 41.9315
DTLB LOAD      ACCESS: 46125291  HIT: 45267402  MISS: 857889  HIT %: 98.1401  MISS %: 1.85991  AVERAGE MISS PENALTY: 41.8579
DTLB RFO       ACCESS: 15274342  HIT: 15256025  MISS: 18317  HIT %: 99.8801  MISS %: 0.11992  AVERAGE MISS PENALTY: 45.3799
DTLB PREFETCH  ACCESS:     0  HIT:     0  MISS:     0  HIT %:     0  MISS %:     0  AVERAGE MISS PENALTY: 0
DTLB WRITEBACK ACCESS:     0  HIT:     0  MISS:     0  HIT %:     0  MISS %:     0  AVERAGE MISS PENALTY: 0

STLB TOTAL     ACCESS: 876206  HIT: 589677  MISS: 286529  HIT %: 67.2989  MISS %: 32.7011  AVERAGE MISS PENALTY: 100
STLB LOAD      ACCESS: 857889  HIT: 577602  MISS: 280287  HIT %: 67.3283  MISS %: 32.6717  AVERAGE MISS PENALTY: 100
STLB RFO       ACCESS: 18317  HIT: 12075  MISS:  6242  HIT %: 65.9224  MISS %: 34.0776  AVERAGE MISS PENALTY: 100
STLB PREFETCH  ACCESS:     0  HIT:     0  MISS:     0  HIT %:     0  MISS %:     0  AVERAGE MISS PENALTY: 0
STLB WRITEBACK ACCESS:     0  HIT:     0  MISS:     0  HIT %:     0  MISS %:     0  AVERAGE MISS PENALTY: 0

L1D TOTAL     ACCESS: 103031057  HIT: 88906842  MISS: 14124215  HIT %: 86.2913  MISS %: 13.7087  AVERAGE MISS PENALTY: 1.43117e+08
L1D LOAD      ACCESS: 47601679  HIT: 39163593  MISS: 8438086  HIT %: 82.2736  MISS %: 17.7264  AVERAGE MISS PENALTY: 2.39022e+08
L1D RFO       ACCESS: 35691421  HIT: 35308619  MISS: 382802  HIT %: 98.9275  MISS %: 1.07253  AVERAGE MISS PENALTY: 1.18033e+07
L1D PREFETCH  ACCESS: 19737957  HIT: 14434630  MISS: 5303327  HIT %: 73.1313  MISS %: 26.8687  AVERAGE MISS PENALTY: 301.851
L1D WRITEBACK ACCESS:     0  HIT:     0  MISS:     0  HIT %:     0  MISS %:     0  AVERAGE MISS PENALTY: 0

L1I TOTAL     ACCESS: 63200766  HIT: 63200756  MISS:    10  HIT %:   100  MISS %: 1.58226e-05  AVERAGE MISS PENALTY: 481
L1I LOAD      ACCESS: 63200766  HIT: 63200756  MISS:    10  HIT %:   100  MISS %: 1.58226e-05  AVERAGE MISS PENALTY: 481
L1I RFO       ACCESS:     0  HIT:     0  MISS:     0  HIT %:     0  MISS %:     0  AVERAGE MISS PENALTY: 0
L1I PREFETCH  ACCESS:     0  HIT:     0  MISS:     0  HIT %:     0  MISS %:     0  AVERAGE MISS PENALTY: 0
L1I WRITEBACK ACCESS:     0  HIT:     0  MISS:     0  HIT %:     0  MISS %:     0  AVERAGE MISS PENALTY: 0

L2C TOTAL     ACCESS: 16595831  HIT: 2816163  MISS: 13779668  HIT %: 16.9691  MISS %: 83.0309  AVERAGE MISS PENALTY: 1.34037e+08
L2C LOAD      ACCESS: 8305741  HIT: 287665  MISS: 8018076  HIT %: 3.46345  MISS %: 96.5366  AVERAGE MISS PENALTY: 2.30334e+08
L2C RFO       ACCESS: 375460  HIT:  9086  MISS: 366374  HIT %: 2.41996  MISS %: 97.58  AVERAGE MISS PENALTY: 418329
L2C PREFETCH  ACCESS: 7089708  HIT: 1702814  MISS: 5386894  HIT %: 24.0181  MISS %: 75.9819  AVERAGE MISS PENALTY: 376.963
L2C WRITEBACK ACCESS: 824922  HIT: 816598  MISS:  8324  HIT %: 98.9909  MISS %: 1.00907  AVERAGE MISS PENALTY: 0


LLC0 TOTAL     ACCESS: 1807150  HIT: 168874  MISS: 1638276  HIT %: 9.34477  MISS %: 90.6552  AVERAGE MISS PENALTY: 381.722
LLC0 LOAD      ACCESS: 598962  HIT: 38077  MISS: 560885  HIT %: 6.35716  MISS %: 93.6428  AVERAGE MISS PENALTY: 380.846
LLC0 RFO       ACCESS: 46353  HIT:    38  MISS: 46315  HIT %: 0.0819796  MISS %: 99.918  AVERAGE MISS PENALTY: 435.456
LLC0 PREFETCH  ACCESS: 1070368  HIT: 65162  MISS: 1005206  HIT %: 6.08781  MISS %: 93.9122  AVERAGE MISS PENALTY: 389.56
LLC0 WRITEBACK ACCESS: 91467  HIT: 65597  MISS: 25870  HIT %: 71.7166  MISS %: 28.2834  AVERAGE MISS PENALTY: 0

LLC1 TOTAL     ACCESS: 1816165  HIT: 168053  MISS: 1648112  HIT %: 9.25318  MISS %: 90.7468  AVERAGE MISS PENALTY: 385.807
LLC1 LOAD      ACCESS: 596012  HIT: 39065  MISS: 556947  HIT %: 6.5544  MISS %: 93.4456  AVERAGE MISS PENALTY: 389.482
LLC1 RFO       ACCESS: 45870  HIT:   146  MISS: 45724  HIT %: 0.318291  MISS %: 99.6817  AVERAGE MISS PENALTY: 443.557
LLC1 PREFETCH  ACCESS: 1083140  HIT: 63326  MISS: 1019814  HIT %: 5.84652  MISS %: 94.1535  AVERAGE MISS PENALTY: 390.906
LLC1 WRITEBACK ACCESS: 91143  HIT: 65516  MISS: 25627  HIT %: 71.8826  MISS %: 28.1174  AVERAGE MISS PENALTY: 0

LLC2 TOTAL     ACCESS: 1820584  HIT: 167368  MISS: 1653216  HIT %: 9.19309  MISS %: 90.8069  AVERAGE MISS PENALTY: 391.126
LLC2 LOAD      ACCESS: 582109  HIT: 38108  MISS: 544001  HIT %: 6.54654  MISS %: 93.4535  AVERAGE MISS PENALTY: 398.582
LLC2 RFO       ACCESS: 45721  HIT:    64  MISS: 45657  HIT %: 0.139979  MISS %: 99.86  AVERAGE MISS PENALTY: 435.644
LLC2 PREFETCH  ACCESS: 1101671  HIT: 63555  MISS: 1038116  HIT %: 5.76896  MISS %: 94.231  AVERAGE MISS PENALTY: 394.846
LLC2 WRITEBACK ACCESS: 91083  HIT: 65641  MISS: 25442  HIT %: 72.0672  MISS %: 27.9328  AVERAGE MISS PENALTY: 0

LLC3 TOTAL     ACCESS: 1815734  HIT: 169310  MISS: 1646424  HIT %: 9.3246  MISS %: 90.6754  AVERAGE MISS PENALTY: 394.314
LLC3 LOAD      ACCESS: 585438  HIT: 38933  MISS: 546505  HIT %: 6.65023  MISS %: 93.3498  AVERAGE MISS PENALTY: 400.702
[...]
LLC2 TOTAL     ACCESS: 1808555  HIT: 151159  MISS: 1657396  HIT %: 8.358  MISS %: 91.642  AVERAGE MISS PENALTY: 395.372
LLC2 LOAD      ACCESS: 577462  HIT: 32640  MISS: 544822  HIT %: 5.65232  MISS %: 94.3477  AVERAGE MISS PENALTY: 405.971
LLC2 RFO       ACCESS: 44826  HIT:    57  MISS: 44769  HIT %: 0.127158  MISS %: 99.8728  AVERAGE MISS PENALTY: 436.063
LLC2 PREFETCH  ACCESS: 1096902  HIT: 60167  MISS: 1036735  HIT %: 5.48518  MISS %: 94.5148  AVERAGE MISS PENALTY: 399.894
LLC2 WRITEBACK ACCESS: 89365  HIT: 58295  MISS: 31070  HIT %: 65.2325  MISS %: 34.7675  AVERAGE MISS PENALTY: 0
LLC2 PREFETCH  REQUESTED:     0  ISSUED:     0  USEFUL: 75348  USELESS: 8224457
 USEFUL LOAD PREFETCHES:      75348 PREFETCH ISSUED TO LOWER LEVEL:    8307225  ACCURACY: 0.907018
 TIMELY PREFETCHES:      75348 LATE PREFETCHES: 0 DROPPED PREFETCHES: 0
LLC2 AVERAGE MISS LATENCY: 395.372 cycles
LLC3 TOTAL     ACCESS: 1804856  HIT: 152046  MISS: 1652810  HIT %: 8.42427  MISS %: 91.5757  AVERAGE MISS PENALTY: 398.839
LLC3 LOAD      ACCESS: 580158  HIT: 33541  MISS: 546617  HIT %: 5.78136  MISS %: 94.2186  AVERAGE MISS PENALTY: 408.643
LLC3 RFO       ACCESS: 44838  HIT:    43  MISS: 44795  HIT %: 0.0959008  MISS %: 99.9041  AVERAGE MISS PENALTY: 438.906
LLC3 PREFETCH  ACCESS: 1090803  HIT: 60323  MISS: 1030480  HIT %: 5.53015  MISS %: 94.4699  AVERAGE MISS PENALTY: 403.863
LLC3 WRITEBACK ACCESS: 89057  HIT: 58139  MISS: 30918  HIT %: 65.2829  MISS %: 34.7171  AVERAGE MISS PENALTY: 0
LLC3 PREFETCH  REQUESTED:     0  ISSUED:     0  USEFUL: 75093  USELESS: 8165389
 USEFUL LOAD PREFETCHES:      75093 PREFETCH ISSUED TO LOWER LEVEL:    8245965  ACCURACY: 0.910664
 TIMELY PREFETCHES:      75093 LATE PREFETCHES: 0 DROPPED PREFETCHES: 0
LLC3 AVERAGE MISS LATENCY: 398.839 cycles
LLC4 TOTAL     ACCESS: 1802201  HIT: 153113  MISS: 1649088  HIT %: 8.49589  MISS %: 91.5041  AVERAGE MISS PENALTY: 391.389
LLC4 LOAD      ACCESS: 574131  HIT: 34475  MISS: 539656  HIT %: 6.00473  MISS %: 93.9953  AVERAGE MISS PENALTY: 408.052
LLC4 RFO       ACCESS: 44750  HIT:    47  MISS: 44703  HIT %: 0.105028  MISS %: 99.895  AVERAGE MISS PENALTY: 443.025
LLC4 PREFETCH  ACCESS: 1094109  HIT: 60155  MISS: 1033954  HIT %: 5.49808  MISS %: 94.5019  AVERAGE MISS PENALTY: 392.108
LLC4 WRITEBACK ACCESS: 89211  HIT: 58436  MISS: 30775  HIT %: 65.5031  MISS %: 34.4969  AVERAGE MISS PENALTY: 0
LLC4 PREFETCH  REQUESTED:     0  ISSUED:     0  USEFUL: 73831  USELESS: 8197809
 USEFUL LOAD PREFETCHES:      73831 PREFETCH ISSUED TO LOWER LEVEL:    8278462  ACCURACY: 0.891844
 TIMELY PREFETCHES:      73831 LATE PREFETCHES: 0 DROPPED PREFETCHES: 0
LLC4 AVERAGE MISS LATENCY: 391.389 cycles
LLC5 TOTAL     ACCESS: 1798904  HIT: 154210  MISS: 1644694  HIT %: 8.57244  MISS %: 91.4276  AVERAGE MISS PENALTY: 378.929
LLC5 LOAD      ACCESS: 579899  HIT: 36658  MISS: 543241  HIT %: 6.32145  MISS %: 93.6786  AVERAGE MISS PENALTY: 396.372
LLC5 RFO       ACCESS: 44735  HIT:    47  MISS: 44688  HIT %: 0.105063  MISS %: 99.8949  AVERAGE MISS PENALTY: 431.455
LLC5 PREFETCH  ACCESS: 1085985  HIT: 59737  MISS: 1026248  HIT %: 5.50072  MISS %: 94.4993  AVERAGE MISS PENALTY: 378.676
LLC5 WRITEBACK ACCESS: 88285  HIT: 57768  MISS: 30517  HIT %: 65.4335  MISS %: 34.5665  AVERAGE MISS PENALTY: 0
LLC5 PREFETCH  REQUESTED:     0  ISSUED:     0  USEFUL: 70886  USELESS: 8136362
 USEFUL LOAD PREFETCHES:      70886 PREFETCH ISSUED TO LOWER LEVEL:    8216869  ACCURACY: 0.862689
 TIMELY PREFETCHES:      70886 LATE PREFETCHES: 0 DROPPED PREFETCHES: 0
LLC5 AVERAGE MISS LATENCY: 378.929 cycles
LLC6 TOTAL     ACCESS: 1798537  HIT: 155668  MISS: 1642869  HIT %: 8.65526  MISS %: 91.3447  AVERAGE MISS PENALTY: 398.937
LLC6 LOAD      ACCESS: 587788  HIT: 38679  MISS: 549109  HIT %: 6.58043  MISS %: 93.4196  AVERAGE MISS PENALTY: 423.492
LLC6 RFO       ACCESS: 44715  HIT:    40  MISS: 44675  HIT %: 0.0894554  MISS %: 99.9105  AVERAGE MISS PENALTY: 436.629
LLC6 PREFETCH  ACCESS: 1077335  HIT: 59096  MISS: 1018239  HIT %: 5.48539  MISS %: 94.5146  AVERAGE MISS PENALTY: 396.127
LLC6 WRITEBACK ACCESS: 88699  HIT: 57853  MISS: 30846  HIT %: 65.224  MISS %: 34.776  AVERAGE MISS PENALTY: 0
LLC6 PREFETCH  REQUESTED:     0  ISSUED:     0  USEFUL: 73389  USELESS: 8074235
 USEFUL LOAD PREFETCHES:      73389 PREFETCH ISSUED TO LOWER LEVEL:    8156629  ACCURACY: 0.899747
 TIMELY PREFETCHES:      73389 LATE PREFETCHES: 0 DROPPED PREFETCHES: 0
LLC6 AVERAGE MISS LATENCY: 398.937 cycles
LLC7 TOTAL     ACCESS: 1793641  HIT: 154819  MISS: 1638822  HIT %: 8.63155  MISS %: 91.3685  AVERAGE MISS PENALTY: 388.521
LLC7 LOAD      ACCESS: 604303  HIT: 41466  MISS: 562837  HIT %: 6.86179  MISS %: 93.1382  AVERAGE MISS PENALTY: 410.021
LLC7 RFO       ACCESS: 44707  HIT:    31  MISS: 44676  HIT %: 0.0693404  MISS %: 99.9307  AVERAGE MISS PENALTY: 429.604
LLC7 PREFETCH  ACCESS: 1055410  HIT: 56598  MISS: 998812  HIT %: 5.36266  MISS %: 94.6373  AVERAGE MISS PENALTY: 387.209
LLC7 WRITEBACK ACCESS: 89221  HIT: 56724  MISS: 32497  HIT %: 63.577  MISS %: 36.423  AVERAGE MISS PENALTY: 0
LLC7 PREFETCH  REQUESTED:     0  ISSUED:     0  USEFUL: 73177  USELESS: 7910785
 USEFUL LOAD PREFETCHES:      73177 PREFETCH ISSUED TO LOWER LEVEL:    8003709  ACCURACY: 0.914289
 TIMELY PREFETCHES:      73177 LATE PREFETCHES: 0 DROPPED PREFETCHES: 0
LLC7 AVERAGE MISS LATENCY: 388.521 cycles
ROI Average ROB Stall Cycles:	13.9644
ROI Total ROB Stalls Cycles:	914347882
ROI TOTAL ROB counter      :	65477135
ROI Average Load ROB Stall Cycles:	57.9813
ROI Total Load ROB Stalls Cycle  :	561207956
ROI Total Load ROB stalls Counter:	9679127
Major fault: 0 Minor fault: 117065

CPU 7 cumulative IPC: 0.210154 instructions: 200000001 cycles: 951684275
ITLB TOTAL     ACCESS: 49846382  HIT: 49846382  MISS:     0  HIT %:   100  MISS %:     0  AVERAGE MISS PENALTY: 0
ITLB LOAD      ACCESS: 49846382  HIT: 49846382  MISS:     0  HIT %:   100  MISS %:     0  AVERAGE MISS PENALTY: 0
ITLB RFO       ACCESS:     0  HIT:     0  MISS:     0  HIT %:     0  MISS %:     0  AVERAGE MISS PENALTY: 0
ITLB PREFETCH  ACCESS:     0  HIT:     0  MISS:     0  HIT %:     0  MISS %:     0  AVERAGE MISS PENALTY: 0
ITLB WRITEBACK ACCESS:     0  HIT:     0  MISS:     0  HIT %:     0  MISS %:     0  AVERAGE MISS PENALTY: 0
ITLB PREFETCH  REQUESTED:     0  ISSUED:     0  USEFUL:     0  USELESS:     0
 USEFUL LOAD PREFETCHES:          0 PREFETCH ISSUED TO LOWER LEVEL:          0  ACCURACY: -nan
 TIMELY PREFETCHES:          0 LATE PREFETCHES: 0 DROPPED PREFETCHES: 0
ITLB AVERAGE MISS LATENCY: -nan cycles
DTLB TOTAL     ACCESS: 59978107  HIT: 59113509  MISS: 864598  HIT %: 98.5585  MISS %: 1.44152  AVERAGE MISS PENALTY: 42.0185
DTLB LOAD      ACCESS: 45198067  HIT: 44351154  MISS: 846913  HIT %: 98.1262  MISS %: 1.87378  AVERAGE MISS PENALTY: 41.9381
DTLB RFO       ACCESS: 14780040  HIT: 14762355  MISS: 17685  HIT %: 99.8803  MISS %: 0.119655  AVERAGE MISS PENALTY: 45.866
DTLB PREFETCH  ACCESS:     0  HIT:     0  MISS:     0  HIT %:     0  MISS %:     0  AVERAGE MISS PENALTY: 0
DTLB WRITEBACK ACCESS:     0  HIT:     0  MISS:     0  HIT %:     0  MISS %:     0  AVERAGE MISS PENALTY: 0
DTLB PREFETCH  REQUESTED:     0  ISSUED:     0  USEFUL:     0  USELESS:     0
 USEFUL LOAD PREFETCHES:          0 PREFETCH ISSUED TO LOWER LEVEL:          0  ACCURACY: -nan
 TIMELY PREFETCHES:          0 LATE PREFETCHES: 0 DROPPED PREFETCHES: 0
DTLB AVERAGE MISS LATENCY: 42.0185 cycles
STLB TOTAL     ACCESS: 864598  HIT: 581070  MISS: 283528  HIT %: 67.207  MISS %: 32.793  AVERAGE MISS PENALTY: 100
STLB LOAD      ACCESS: 846913  HIT: 569497  MISS: 277416  HIT %: 67.2439  MISS %: 32.7561  AVERAGE MISS PENALTY: 100
STLB RFO       ACCESS: 17685  HIT: 11573  MISS:  6112  HIT %: 65.4396  MISS %: 34.5604  AVERAGE MISS PENALTY: 100
STLB PREFETCH  ACCESS:     0  HIT:     0  MISS:     0  HIT %:     0  MISS %:     0  AVERAGE MISS PENALTY: 0
STLB WRITEBACK ACCESS:     0  HIT:     0  MISS:     0  HIT %:     0  MISS %:     0  AVERAGE MISS PENALTY: 0
STLB PREFETCH  REQUESTED:     0  ISSUED:     0  USEFUL:     0  USELESS:     0
 USEFUL LOAD PREFETCHES:          0 PREFETCH ISSUED TO LOWER LEVEL:          0  ACCURACY: -nan
 TIMELY PREFETCHES:          0 LATE PREFETCHES: 0 DROPPED PREFETCHES: 0
STLB AVERAGE MISS LATENCY: 100 cycles
L1D TOTAL     ACCESS: 100315381  HIT: 86332260  MISS: 13983121  HIT %: 86.0608  MISS %: 13.9392  AVERAGE MISS PENALTY: 1.43792e+08
L1D LOAD      ACCESS: 46652251  HIT: 38267145  MISS: 8385106  HIT %: 82.0264  MISS %: 17.9736  AVERAGE MISS PENALTY: 2.39278e+08
L1D RFO       ACCESS: 34476552  HIT: 34101376  MISS: 375176  HIT %: 98.9118  MISS %: 1.08821  AVERAGE MISS PENALTY: 1.14367e+07
L1D PREFETCH  ACCESS: 19186578  HIT: 13963739  MISS: 5222839  HIT %: 72.7787  MISS %: 27.2213  AVERAGE MISS PENALTY: 308.954
L1D WRITEBACK ACCESS:     0  HIT:     0  MISS:     0  HIT %:     0  MISS %:     0  AVERAGE MISS PENALTY: 0
L1D PREFETCH  REQUESTED: 41817101  ISSUED: 40988094  USEFUL: 3994505  USELESS: 1228310
 USEFUL LOAD PREFETCHES:    3994505 PREFETCH ISSUED TO LOWER LEVEL:   27788872  ACCURACY: 14.3745
 TIMELY PREFETCHES:    3994505 LATE PREFETCHES: 6589587 DROPPED PREFETCHES: 829007
L1D AVERAGE MISS LATENCY: 307186 cycles
L1I TOTAL     ACCESS: 61944109  HIT: 61944099  MISS:    10  HIT %:   100  MISS %: 1.61436e-05  AVERAGE MISS PENALTY: 637.3
L1I LOAD      ACCESS: 61944109  HIT: 61944099  MISS:    10  HIT %:   100  MISS %: 1.61436e-05  AVERAGE MISS PENALTY: 637.3
L1I RFO       ACCESS:     0  HIT:     0  MISS:     0  HIT %:     0  MISS %:     0  AVERAGE MISS PENALTY: 0
L1I PREFETCH  ACCESS:     0  HIT:     0  MISS:     0  HIT %:     0  MISS %:     0  AVERAGE MISS PENALTY: 0
L1I WRITEBACK ACCESS:     0  HIT:     0  MISS:     0  HIT %:     0  MISS %:     0  AVERAGE MISS PENALTY: 0
L1I PREFETCH  REQUESTED:     0  ISSUED:     0  USEFUL:     0  USELESS:     0
 USEFUL LOAD PREFETCHES:          0 PREFETCH ISSUED TO LOWER LEVEL:          0  ACCURACY: -nan
 TIMELY PREFETCHES:          0 LATE PREFETCHES: 0 DROPPED PREFETCHES: 0
L1I AVERAGE MISS LATENCY: 637.3 cycles
L2C TOTAL     ACCESS: 16415876  HIT: 2712151  MISS: 13703725  HIT %: 16.5215  MISS %: 83.4785  AVERAGE MISS PENALTY: 1.34424e+08
L2C LOAD      ACCESS: 8256834  HIT: 281915  MISS: 7974919  HIT %: 3.41432  MISS %: 96.5857  AVERAGE MISS PENALTY: 2.30968e+08
L2C RFO       ACCESS: 368097  HIT:  8867  MISS: 359230  HIT %: 2.40888  MISS %: 97.5911  AVERAGE MISS PENALTY: 428605
L2C PREFETCH  ACCESS: 6983903  HIT: 1626307  MISS: 5357596  HIT %: 23.2865  MISS %: 76.7135  AVERAGE MISS PENALTY: 382.798
L2C WRITEBACK ACCESS: 807042  HIT: 795062  MISS: 11980  HIT %: 98.5156  MISS %: 1.48443  AVERAGE MISS PENALTY: 0
L2C PREFETCH  REQUESTED: 11886490  ISSUED: 11870555  USEFUL: 174180  USELESS: 5185380
 USEFUL LOAD PREFETCHES:     174180 PREFETCH ISSUED TO LOWER LEVEL:   13764838  ACCURACY: 1.2654
 TIMELY PREFETCHES:     174180 LATE PREFETCHES: 5427342 DROPPED PREFETCHES: 15935
L2C AVERAGE MISS LATENCY: 375.627 cycles
LLC0 TOTAL     ACCESS: 1795002  HIT: 152380  MISS: 1642622  HIT %: 8.48913  MISS %: 91.5109  AVERAGE MISS PENALTY: 385.437
LLC0 LOAD      ACCESS: 593897  HIT: 33673  MISS: 560224  HIT %: 5.66984  MISS %: 94.3302  AVERAGE MISS PENALTY: 386.534
LLC0 RFO       ACCESS: 45440  HIT:    42  MISS: 45398  HIT %: 0.0924296  MISS %: 99.9076  AVERAGE MISS PENALTY: 440.819
LLC0 PREFETCH  ACCESS: 1065276  HIT: 60510  MISS: 1004766  HIT %: 5.68022  MISS %: 94.3198  AVERAGE MISS PENALTY: 394.687
LLC0 WRITEBACK ACCESS: 90389  HIT: 58155  MISS: 32234  HIT %: 64.3386  MISS %: 35.6614  AVERAGE MISS PENALTY: 0
LLC0 PREFETCH  REQUESTED:     0  ISSUED:     0  USEFUL: 76998  USELESS: 7964773
 USEFUL LOAD PREFETCHES:      76998 PREFETCH ISSUED TO LOWER LEVEL:    8048294  ACCURACY: 0.9567
 TIMELY PREFETCHES:      76998 LATE PREFETCHES: 0 DROPPED PREFETCHES: 0
LLC0 AVERAGE MISS LATENCY: 385.437 cycles
Deadblocks : 4399520 Deadblock percentage : 785.314

LLC1 TOTAL     ACCESS: 1804209  HIT: 150942  MISS: 1653267  HIT %: 8.3661  MISS %: 91.6339  AVERAGE MISS PENALTY: 390.344
LLC1 LOAD      ACCESS: 591511  HIT: 34078  MISS: 557433  HIT %: 5.76118  MISS %: 94.2388  AVERAGE MISS PENALTY: 396.485
LLC1 RFO       ACCESS: 45009  HIT:   155  MISS: 44854  HIT %: 0.344376  MISS %: 99.6556  AVERAGE MISS PENALTY: 450.338
LLC1 PREFETCH  ACCESS: 1077535  HIT: 58566  MISS: 1018969  HIT %: 5.43518  MISS %: 94.5648  AVERAGE MISS PENALTY: 396.606
LLC1 WRITEBACK ACCESS: 90154  HIT: 58143  MISS: 32011  HIT %: 64.493  MISS %: 35.507  AVERAGE MISS PENALTY: 0
LLC1 PREFETCH  REQUESTED:     0  ISSUED:     0  USEFUL: 76877  USELESS: 8081780
 USEFUL LOAD PREFETCHES:      76877 PREFETCH ISSUED TO LOWER LEVEL:    8163652  ACCURACY: 0.941699
 TIMELY PREFETCHES:      76877 LATE PREFETCHES: 0 DROPPED PREFETCHES: 0
LLC1 AVERAGE MISS LATENCY: 390.344 cycles
LLC2 TOTAL     ACCESS: 1808274  HIT: 150421  MISS: 1657853  HIT %: 8.31848  MISS %: 91.6815  AVERAGE MISS PENALTY: 395.011
LLC2 LOAD      ACCESS: 577218  HIT: 32978  MISS: 544240  HIT %: 5.71327  MISS %: 94.2867  AVERAGE MISS PENALTY: 404.76
LLC2 RFO       ACCESS: 44819  HIT:    56  MISS: 44763  HIT %: 0.124947  MISS %: 99.8751  AVERAGE MISS PENALTY: 443.681
LLC2 PREFETCH  ACCESS: 1096882  HIT: 59678  MISS: 1037204  HIT %: 5.44069  MISS %: 94.5593  AVERAGE MISS PENALTY: 399.848
LLC2 WRITEBACK ACCESS: 89355  HIT: 57709  MISS: 31646  HIT %: 64.584  MISS %: 35.416  AVERAGE MISS PENALTY: 0
LLC2 PREFETCH  REQUESTED:     0  ISSUED:     0  USEFUL: 75348  USELESS: 8224457
 USEFUL LOAD PREFETCHES:      75348 PREFETCH ISSUED TO LOWER LEVEL:    8307225  ACCURACY: 0.907018
 TIMELY PREFETCHES:      75348 LATE PREFETCHES: 0 DROPPED PREFETCHES: 0
LLC2 AVERAGE MISS LATENCY: 395.011 cycles
LLC3 TOTAL     ACCESS: 1804801  HIT: 152612  MISS: 1652189  HIT %: 8.45589  MISS %: 91.5441  AVERAGE MISS PENALTY: 398.547
LLC3 LOAD      ACCESS: 580954  HIT: 34175  MISS: 546779  HIT %: 5.88257  MISS %: 94.1174  AVERAGE MISS PENALTY: 407.286
LLC3 RFO       ACCESS: 44834  HIT:    35  MISS: 44799  HIT %: 0.0780658  MISS %: 99.9219  AVERAGE MISS PENALTY: 447.415
LLC3 PREFETCH  ACCESS: 1089947  HIT: 60514  MISS: 1029433  HIT %: 5.55201  MISS %: 94.448  AVERAGE MISS PENALTY: 403.849
LLC3 WRITEBACK ACCESS: 89066  HIT: 57888  MISS: 31178  HIT %: 64.9945  MISS %: 35.0055  AVERAGE MISS PENALTY: 0
LLC3 PREFETCH  REQUESTED:     0  ISSUED:     0  USEFUL: 75093  USELESS: 8165389
 USEFUL LOAD PREFETCHES:      75093 PREFETCH ISSUED TO LOWER LEVEL:    8245965  ACCURACY: 0.910664
 TIMELY PREFETCHES:      75093 LATE PREFETCHES: 0 DROPPED PREFETCHES: 0
LLC3 AVERAGE MISS LATENCY: 398.547 cycles
LLC4 TOTAL     ACCESS: 1802533  HIT: 152040  MISS: 1650493  HIT %: 8.4348  MISS %: 91.5652  AVERAGE MISS PENALTY: 391.469
LLC4 LOAD      ACCESS: 574568  HIT: 34780  MISS: 539788  HIT %: 6.05324  MISS %: 93.9468  AVERAGE MISS PENALTY: 407.23
LLC4 RFO       ACCESS: 44744  HIT:    32  MISS: 44712  HIT %: 0.071518  MISS %: 99.9285  AVERAGE MISS PENALTY: 445.076
LLC4 PREFETCH  ACCESS: 1094029  HIT: 59715  MISS: 1034314  HIT %: 5.45826  MISS %: 94.5417  AVERAGE MISS PENALTY: 392.916
LLC4 WRITEBACK ACCESS: 89192  HIT: 57513  MISS: 31679  HIT %: 64.4822  MISS %: 35.5178  AVERAGE MISS PENALTY: 0
LLC4 PREFETCH  REQUESTED:     0  ISSUED:     0  USEFUL: 73831  USELESS: 8197809
 USEFUL LOAD PREFETCHES:      73831 PREFETCH ISSUED TO LOWER LEVEL:    8278462  ACCURACY: 0.891844
 TIMELY PREFETCHES:      73831 LATE PREFETCHES: 0 DROPPED PREFETCHES: 0
LLC4 AVERAGE MISS LATENCY: 391.469 cycles
LLC5 TOTAL     ACCESS: 1799267  HIT: 153417  MISS: 1645850  HIT %: 8.52664  MISS %: 91.4734  AVERAGE MISS PENALTY: 379.021
LLC5 LOAD      ACCESS: 581622  HIT: 36630  MISS: 544992  HIT %: 6.2979  MISS %: 93.7021  AVERAGE MISS PENALTY: 395.969
LLC5 RFO       ACCESS: 44735  HIT:    55  MISS: 44680  HIT %: 0.122946  MISS %: 99.8771  AVERAGE MISS PENALTY: 435.457
LLC5 PREFETCH  ACCESS: 1084681  HIT: 59581  MISS: 1025100  HIT %: 5.49295  MISS %: 94.507  AVERAGE MISS PENALTY: 379.041
LLC5 WRITEBACK ACCESS: 88229  HIT: 57151  MISS: 31078  HIT %: 64.7758  MISS %: 35.2242  AVERAGE MISS PENALTY: 0
LLC5 PREFETCH  REQUESTED:     0  ISSUED:     0  USEFUL: 70886  USELESS: 8136362
 USEFUL LOAD PREFETCHES:      70886 PREFETCH ISSUED TO LOWER LEVEL:    8216869  ACCURACY: 0.862689
 TIMELY PREFETCHES:      70886 LATE PREFETCHES: 0 DROPPED PREFETCHES: 0
LLC5 AVERAGE MISS LATENCY: 379.021 cycles
LLC6 TOTAL     ACCESS: 1798931  HIT: 155297  MISS: 1643634  HIT %: 8.63274  MISS %: 91.3673  AVERAGE MISS PENALTY: 398.658
LLC6 LOAD      ACCESS: 587821  HIT: 39077  MISS: 548744  HIT %: 6.64777  MISS %: 93.3522  AVERAGE MISS PENALTY: 422.179
LLC6 RFO       ACCESS: 44708  HIT:    29  MISS: 44679  HIT %: 0.0648653  MISS %: 99.9351  AVERAGE MISS PENALTY: 444.715
LLC6 PREFETCH  ACCESS: 1077729  HIT: 59231  MISS: 1018498  HIT %: 5.49591  MISS %: 94.5041  AVERAGE MISS PENALTY: 396.378
LLC6 WRITEBACK ACCESS: 88673  HIT: 56960  MISS: 31713  HIT %: 64.236  MISS %: 35.764  AVERAGE MISS PENALTY: 0
LLC6 PREFETCH  REQUESTED:     0  ISSUED:     0  USEFUL: 73389  USELESS: 8074235
 USEFUL LOAD PREFETCHES:      73389 PREFETCH ISSUED TO LOWER LEVEL:    8156629  ACCURACY: 0.899747
 TIMELY PREFETCHES:      73389 LATE PREFETCHES: 0 DROPPED PREFETCHES: 0
LLC6 AVERAGE MISS LATENCY: 398.658 cycles
LLC7 TOTAL     ACCESS: 1792974  HIT: 155093  MISS: 1637881  HIT %: 8.65004  MISS %: 91.35  AVERAGE MISS PENALTY: 388.361
LLC7 LOAD      ACCESS: 605133  HIT: 42127  MISS: 563006  HIT %: 6.96161  MISS %: 93.0384  AVERAGE MISS PENALTY: 409.545
LLC7 RFO       ACCESS: 44695  HIT:    23  MISS: 44672  HIT %: 0.0514599  MISS %: 99.9485  AVERAGE MISS PENALTY: 435.472
LLC7 PREFETCH  ACCESS: 1053955  HIT: 56859  MISS: 997096  HIT %: 5.39482  MISS %: 94.6052  AVERAGE MISS PENALTY: 387.184
LLC7 WRITEBACK ACCESS: 89191  HIT: 56084  MISS: 33107  HIT %: 62.8808  MISS %: 37.1192  AVERAGE MISS PENALTY: 0
LLC7 PREFETCH  REQUESTED:     0  ISSUED:     0  USEFUL: 73177  USELESS: 7910785
 USEFUL LOAD PREFETCHES:      73177 PREFETCH ISSUED TO LOWER LEVEL:    8003709  ACCURACY: 0.914289
 TIMELY PREFETCHES:      73177 LATE PREFETCHES: 0 DROPPED PREFETCHES: 0
LLC7 AVERAGE MISS LATENCY: 388.361 cycles
ROI Average ROB Stall Cycles:	13.9563
ROI Total ROB Stalls Cycles:	914012047
ROI TOTAL ROB counter      :	65491104
ROI Average Load ROB Stall Cycles:	57.9374
ROI Total Load ROB Stalls Cycle  :	561015962
ROI Total Load ROB stalls Counter:	9683146
Major fault: 0 Minor fault: 117078








Interconnect Stats 
LINK 0 BW : 0LINK 1 BW : 0LINK 2 BW : 0LINK 3 BW : 0LINK 4 BW : 0LINK 5 BW : 0LINK 6 BW : 0LINK 7 BW : 0
DRAM Statistics
 CHANNEL 0
 RQ ROW_BUFFER_HIT: 24999348  ROW_BUFFER_MISS: 26720104
 DBUS_CONGESTED: 48824285
 WQ ROW_BUFFER_HIT: 234118  ROW_BUFFER_MISS: 2604786  FULL:     0

 CHANNEL 1
 RQ ROW_BUFFER_HIT: 24964452  ROW_BUFFER_MISS: 26712925
 DBUS_CONGESTED: 48824285
 WQ ROW_BUFFER_HIT: 232439  ROW_BUFFER_MISS: 2596335  FULL:     0

 AVG_CONGESTED_CYCLE: 6
DRAM PAGES: 2097152
Allocated PAGES: 936968
L2C destructor called
L1D destructor called
L1I destructor called
STLB destructor called
DTLB destructor called
ITLB destructor called
L2C destructor called
L1D destructor called
L1I destructor called
STLB destructor called
DTLB destructor called
ITLB destructor called
L2C destructor called
L1D destructor called
L1I destructor called
STLB destructor called
DTLB destructor called
ITLB destructor called
L2C destructor called
L1D destructor called
L1I destructor called
STLB destructor called
DTLB destructor called
ITLB destructor called
L2C destructor called
L1D destructor called
L1I destructor called
STLB destructor called
DTLB destructor called
ITLB destructor called
L2C destructor called
L1D destructor called
L1I destructor called
STLB destructor called
DTLB destructor called
ITLB destructor called
L2C destructor called
L1D destructor called
L1I destructor called
STLB destructor called
DTLB destructor called
ITLB destructor called
L2C destructor called
L1D destructor called
L1I destructor called
STLB destructor called
DTLB destructor called
ITLB destructor called
