
*** ChampSim Multicore Out-of-Order Simulator ***

Warmup Instructions: 200000000
Simulation Instructions: 200000000
Number of CPUs: 8
threads:1

L1I Configuration:
L1I_SET:64
L1I_WAY:8
L1I_RQ_SIZE:64
L1I_WQ_SIZE:64
L1I_PQ_SIZE:8
L1I_MSHR_SIZE:8

L1D Configuration:
L1D_SET:64
L1D_WAY:12
L1D_RQ_SIZE:64
L1D_WQ_SIZE:64
L1D_PQ_SIZE:8
L1D_MSHR_SIZE:16

L2C Configuration:
L2C_SET:1024
L2C_WAY:8
L2C_RQ_SIZE:32
L2C_WQ_SIZE:32
L2C_PQ_SIZE:16
L2C_MSHR_SIZE:32

LLC Configuration:
LLC_SET:2048
LLC_WAY:16
LLC SLICES:8
LLC_RQ_SIZE:64
LLC_WQ_SIZE:64
LLC_PQ_SIZE:32
LLC_MSHR_SIZE:64

Interconnect OFF
Attacker deprioritize is: OFF
Off-chip DRAM Size: 8192 MB Channels: 2 Width: 64-bit Data Rate: 3200 MT/s
PAGE SIZE in KB: 4.000000 
PAGE SIZE in MB: 0.003906 
PAGE offset in bits: 12 
CEASER-S_LLC:0
MIRAGE : 0
CEASER_LATENCY:3
REMAP : OFF
Partitions : 1
Multi-Step : OFF
BFS : OFF

CPU 0 runs /home/anubhav/spec_2017/605.mcf_s-1536B.champsimtrace.xz
CPU 1 runs /home/anubhav/spec_2017/605.mcf_s-1536B.champsimtrace.xz
CPU 2 runs /home/anubhav/spec_2017/605.mcf_s-1536B.champsimtrace.xz
CPU 3 runs /home/anubhav/spec_2017/605.mcf_s-1536B.champsimtrace.xz
CPU 4 runs /home/anubhav/spec_2017/605.mcf_s-1536B.champsimtrace.xz
CPU 5 runs /home/anubhav/spec_2017/605.mcf_s-1536B.champsimtrace.xz
CPU 6 runs /home/anubhav/spec_2017/605.mcf_s-1536B.champsimtrace.xz
CPU 7 runs /home/anubhav/spec_2017/605.mcf_s-1536B.champsimtrace.xz
CPU 0 Bimodal branch predictor
Initialize Hawkeye state
Initialize Hawkeye state
Initialize Hawkeye state
Initialize Hawkeye state
Initialize Hawkeye state
Initialize Hawkeye state
Initialize Hawkeye state
Initialize Hawkeye state
CPU 1 Bimodal branch predictor
Initialize Hawkeye state
Initialize Hawkeye state
Initialize Hawkeye state
Initialize Hawkeye state
Initialize Hawkeye state
Initialize Hawkeye state
Initialize Hawkeye state
Initialize Hawkeye state
CPU 2 Bimodal branch predictor
Initialize Hawkeye state
Initialize Hawkeye state
Initialize Hawkeye state
Initialize Hawkeye state
Initialize Hawkeye state
Initialize Hawkeye state
Initialize Hawkeye state
Initialize Hawkeye state
CPU 3 Bimodal branch predictor
Initialize Hawkeye state
Initialize Hawkeye state
Initialize Hawkeye state
Initialize Hawkeye state
Initialize Hawkeye state
Initialize Hawkeye state
Initialize Hawkeye state
Initialize Hawkeye state
CPU 4 Bimodal branch predictor
Initialize Hawkeye state
Initialize Hawkeye state
Initialize Hawkeye state
Initialize Hawkeye state
Initialize Hawkeye state
Initialize Hawkeye state
Initialize Hawkeye state
Initialize Hawkeye state
CPU 5 Bimodal branch predictor
Initialize Hawkeye state
Initialize Hawkeye state
Initialize Hawkeye state
Initialize Hawkeye state
Initialize Hawkeye state
Initialize Hawkeye state
Initialize Hawkeye state
Initialize Hawkeye state
CPU 6 Bimodal branch predictor
Initialize Hawkeye state
Initialize Hawkeye state
Initialize Hawkeye state
Initialize Hawkeye state
Initialize Hawkeye state
Initialize Hawkeye state
Initialize Hawkeye state
Initialize Hawkeye state
CPU 7 Bimodal branch predictor
Initialize Hawkeye state
Initialize Hawkeye state
Initialize Hawkeye state
Initialize Hawkeye state
Initialize Hawkeye state
Initialize Hawkeye state
Initialize Hawkeye state
Initialize Hawkeye state
Heartbeat CPU 4 instructions: 10000002 cycles: 3442091 heartbeat IPC: 2.90521 cumulative IPC: 2.90521 (Simulation time: 14 hr 7 min 51 sec) 
 Total Blocks : 262144 Invalid Blocks : 4
Heartbeat CPU 0 instructions: 10000002 cycles: 3442210 heartbeat IPC: 2.90511 cumulative IPC: 2.90511 (Simulation time: 14 hr 8 min 0 sec) 
 Total Blocks : 262144 Invalid Blocks : 4
Heartbeat CPU 3 instructions: 10000002 cycles: 3442711 heartbeat IPC: 2.90469 cumulative IPC: 2.90469 (Simulation time: 14 hr 8 min 11 sec) 
 Total Blocks : 262144 Invalid Blocks : 4
Heartbeat CPU 2 instructions: 10000002 cycles: 3442722 heartbeat IPC: 2.90468 cumulative IPC: 2.90468 (Simulation time: 14 hr 8 min 14 sec) 
 Total Blocks : 262144 Invalid Blocks : 4
Heartbeat CPU 1 instructions: 10000002 cycles: 3442823 heartbeat IPC: 2.90459 cumulative IPC: 2.90459 (Simulation time: 14 hr 8 min 18 sec) 
 Total Blocks : 262144 Invalid Blocks : 4
Heartbeat CPU 6 instructions: 10000002 cycles: 3443353 heartbeat IPC: 2.90415 cumulative IPC: 2.90415 (Simulation time: 14 hr 8 min 22 sec) 
 Total Blocks : 262144 Invalid Blocks : 4
Heartbeat CPU 5 instructions: 10000002 cycles: 3443378 heartbeat IPC: 2.90413 cumulative IPC: 2.90413 (Simulation time: 14 hr 8 min 23 sec) 
 Total Blocks : 262144 Invalid Blocks : 4
Heartbeat CPU 7 instructions: 10000002 cycles: 3443611 heartbeat IPC: 2.90393 cumulative IPC: 2.90393 (Simulation time: 14 hr 8 min 30 sec) 
 Total Blocks : 262144 Invalid Blocks : 4
Heartbeat CPU 0 instructions: 20000001 cycles: 6878887 heartbeat IPC: 2.90979 cumulative IPC: 2.90745 (Simulation time: 32 hr 58 min 42 sec) 
 Total Blocks : 262144 Invalid Blocks : 0
Heartbeat CPU 4 instructions: 20000001 cycles: 6879261 heartbeat IPC: 2.90937 cumulative IPC: 2.90729 (Simulation time: 32 hr 59 min 12 sec) 
 Total Blocks : 262144 Invalid Blocks : 0
Heartbeat CPU 2 instructions: 20000001 cycles: 6879710 heartbeat IPC: 2.90952 cumulative IPC: 2.9071 (Simulation time: 33 hr 1 min 13 sec) 
 Total Blocks : 262144 Invalid Blocks : 0
Heartbeat CPU 1 instructions: 20000001 cycles: 6879897 heartbeat IPC: 2.90945 cumulative IPC: 2.90702 (Simulation time: 33 hr 1 min 27 sec) 
 Total Blocks : 262144 Invalid Blocks : 0
Heartbeat CPU 3 instructions: 20000001 cycles: 6880019 heartbeat IPC: 2.90925 cumulative IPC: 2.90697 (Simulation time: 33 hr 1 min 30 sec) 
 Total Blocks : 262144 Invalid Blocks : 0
Heartbeat CPU 7 instructions: 20000001 cycles: 6880778 heartbeat IPC: 2.90937 cumulative IPC: 2.90665 (Simulation time: 33 hr 2 min 50 sec) 
 Total Blocks : 262144 Invalid Blocks : 0
Heartbeat CPU 6 instructions: 20000001 cycles: 6880833 heartbeat IPC: 2.90911 cumulative IPC: 2.90663 (Simulation time: 33 hr 2 min 52 sec) 
 Total Blocks : 262144 Invalid Blocks : 0
Heartbeat CPU 5 instructions: 20000001 cycles: 6880869 heartbeat IPC: 2.9091 cumulative IPC: 2.90661 (Simulation time: 33 hr 2 min 52 sec) 
 Total Blocks : 262144 Invalid Blocks : 0
Heartbeat CPU 0 instructions: 30000003 cycles: 10313900 heartbeat IPC: 2.9112 cumulative IPC: 2.9087 (Simulation time: 48 hr 55 min 21 sec) 
 Total Blocks : 262144 Invalid Blocks : 0
Heartbeat CPU 2 instructions: 30000003 cycles: 10315317 heartbeat IPC: 2.91069 cumulative IPC: 2.9083 (Simulation time: 48 hr 55 min 26 sec) 
 Total Blocks : 262144 Invalid Blocks : 0
Heartbeat CPU 1 instructions: 30000003 cycles: 10315883 heartbeat IPC: 2.91037 cumulative IPC: 2.90814 (Simulation time: 48 hr 55 min 28 sec) 
 Total Blocks : 262144 Invalid Blocks : 0
Heartbeat CPU 3 instructions: 30000003 cycles: 10315959 heartbeat IPC: 2.91041 cumulative IPC: 2.90812 (Simulation time: 48 hr 55 min 28 sec) 
 Total Blocks : 262144 Invalid Blocks : 0
Heartbeat CPU 4 instructions: 30000003 cycles: 10316304 heartbeat IPC: 2.90948 cumulative IPC: 2.90802 (Simulation time: 48 hr 55 min 30 sec) 
 Total Blocks : 262144 Invalid Blocks : 0
Heartbeat CPU 5 instructions: 30000003 cycles: 10316317 heartbeat IPC: 2.91083 cumulative IPC: 2.90801 (Simulation time: 48 hr 55 min 30 sec) 
 Total Blocks : 262144 Invalid Blocks : 0
Heartbeat CPU 6 instructions: 30000003 cycles: 10316784 heartbeat IPC: 2.9104 cumulative IPC: 2.90788 (Simulation time: 48 hr 55 min 31 sec) 
 Total Blocks : 262144 Invalid Blocks : 0
Heartbeat CPU 7 instructions: 30000003 cycles: 10317271 heartbeat IPC: 2.90994 cumulative IPC: 2.90775 (Simulation time: 48 hr 55 min 32 sec) 
 Total Blocks : 262144 Invalid Blocks : 0
Heartbeat CPU 0 instructions: 40000000 cycles: 13755284 heartbeat IPC: 2.90581 cumulative IPC: 2.90797 (Simulation time: 52 hr 52 min 2 sec) 
 Total Blocks : 262144 Invalid Blocks : 0
Heartbeat CPU 2 instructions: 40000000 cycles: 13757260 heartbeat IPC: 2.90533 cumulative IPC: 2.90756 (Simulation time: 52 hr 52 min 11 sec) 
 Total Blocks : 262144 Invalid Blocks : 0
Heartbeat CPU 1 instructions: 40000000 cycles: 13757539 heartbeat IPC: 2.90558 cumulative IPC: 2.9075 (Simulation time: 52 hr 52 min 13 sec) 
 Total Blocks : 262144 Invalid Blocks : 0
Heartbeat CPU 4 instructions: 40000000 cycles: 13758953 heartbeat IPC: 2.90474 cumulative IPC: 2.9072 (Simulation time: 52 hr 52 min 17 sec) 
 Total Blocks : 262144 Invalid Blocks : 0
Heartbeat CPU 5 instructions: 40000000 cycles: 13759099 heartbeat IPC: 2.90463 cumulative IPC: 2.90717 (Simulation time: 52 hr 52 min 18 sec) 
 Total Blocks : 262144 Invalid Blocks : 0
Heartbeat CPU 3 instructions: 40000000 cycles: 13759158 heartbeat IPC: 2.90428 cumulative IPC: 2.90715 (Simulation time: 52 hr 52 min 19 sec) 
 Total Blocks : 262144 Invalid Blocks : 0
Heartbeat CPU 6 instructions: 40000000 cycles: 13760127 heartbeat IPC: 2.90415 cumulative IPC: 2.90695 (Simulation time: 52 hr 52 min 22 sec) 
 Total Blocks : 262144 Invalid Blocks : 0
Heartbeat CPU 7 instructions: 40000000 cycles: 13761013 heartbeat IPC: 2.90382 cumulative IPC: 2.90676 (Simulation time: 52 hr 52 min 24 sec) 
 Total Blocks : 262144 Invalid Blocks : 0
Heartbeat CPU 0 instructions: 50000001 cycles: 17198121 heartbeat IPC: 2.90458 cumulative IPC: 2.90729 (Simulation time: 56 hr 49 min 31 sec) 
 Total Blocks : 262144 Invalid Blocks : 0
Heartbeat CPU 1 instructions: 50000001 cycles: 17201182 heartbeat IPC: 2.9039 cumulative IPC: 2.90678 (Simulation time: 56 hr 49 min 41 sec) 
 Total Blocks : 262144 Invalid Blocks : 0
Heartbeat CPU 2 instructions: 50000001 cycles: 17201236 heartbeat IPC: 2.90362 cumulative IPC: 2.90677 (Simulation time: 56 hr 49 min 42 sec) 
 Total Blocks : 262144 Invalid Blocks : 0
Heartbeat CPU 3 instructions: 50000001 cycles: 17202449 heartbeat IPC: 2.9042 cumulative IPC: 2.90656 (Simulation time: 56 hr 49 min 45 sec) 
 Total Blocks : 262144 Invalid Blocks : 0
Heartbeat CPU 4 instructions: 50000001 cycles: 17202470 heartbeat IPC: 2.90401 cumulative IPC: 2.90656 (Simulation time: 56 hr 49 min 46 sec) 
 Total Blocks : 262144 Invalid Blocks : 0
Heartbeat CPU 5 instructions: 50000001 cycles: 17203011 heartbeat IPC: 2.90367 cumulative IPC: 2.90647 (Simulation time: 56 hr 49 min 48 sec) 
 Total Blocks : 262144 Invalid Blocks : 0
Heartbeat CPU 6 instructions: 50000001 cycles: 17204355 heartbeat IPC: 2.90341 cumulative IPC: 2.90624 (Simulation time: 56 hr 49 min 51 sec) 
 Total Blocks : 262144 Invalid Blocks : 0
Heartbeat CPU 7 instructions: 50000001 cycles: 17205685 heartbeat IPC: 2.90303 cumulative IPC: 2.90602 (Simulation time: 56 hr 49 min 55 sec) 
 Total Blocks : 262144 Invalid Blocks : 0
Heartbeat CPU 0 instructions: 60000003 cycles: 20633289 heartbeat IPC: 2.91107 cumulative IPC: 2.90792 (Simulation time: 60 hr 42 min 16 sec) 
 Total Blocks : 262144 Invalid Blocks : 0
Heartbeat CPU 1 instructions: 60000003 cycles: 20636544 heartbeat IPC: 2.9109 cumulative IPC: 2.90746 (Simulation time: 60 hr 42 min 35 sec) 
 Total Blocks : 262144 Invalid Blocks : 0
Heartbeat CPU 2 instructions: 60000003 cycles: 20637294 heartbeat IPC: 2.91031 cumulative IPC: 2.90736 (Simulation time: 60 hr 42 min 39 sec) 
 Total Blocks : 262144 Invalid Blocks : 0
Heartbeat CPU 3 instructions: 60000000 cycles: 20638205 heartbeat IPC: 2.91057 cumulative IPC: 2.90723 (Simulation time: 60 hr 42 min 41 sec) 
 Total Blocks : 262144 Invalid Blocks : 0
Heartbeat CPU 4 instructions: 60000003 cycles: 20639020 heartbeat IPC: 2.9099 cumulative IPC: 2.90711 (Simulation time: 60 hr 42 min 43 sec) 
 Total Blocks : 262144 Invalid Blocks : 0
Heartbeat CPU 5 instructions: 60000003 cycles: 20639537 heartbeat IPC: 2.90992 cumulative IPC: 2.90704 (Simulation time: 60 hr 42 min 44 sec) 
 Total Blocks : 262144 Invalid Blocks : 0
Heartbeat CPU 6 instructions: 60000000 cycles: 20641889 heartbeat IPC: 2.90906 cumulative IPC: 2.90671 (Simulation time: 60 hr 42 min 51 sec) 
 Total Blocks : 262144 Invalid Blocks : 0
Heartbeat CPU 7 instructions: 60000003 cycles: 20642428 heartbeat IPC: 2.90973 cumulative IPC: 2.90664 (Simulation time: 60 hr 42 min 53 sec) 
 Total Blocks : 262144 Invalid Blocks : 0
Heartbeat CPU 0 instructions: 70000003 cycles: 24067673 heartbeat IPC: 2.91173 cumulative IPC: 2.90847 (Simulation time: 64 hr 30 min 14 sec) 
 Total Blocks : 262144 Invalid Blocks : 0
Heartbeat CPU 1 instructions: 70000003 cycles: 24071554 heartbeat IPC: 2.9112 cumulative IPC: 2.908 (Simulation time: 64 hr 30 min 28 sec) 
 Total Blocks : 262144 Invalid Blocks : 0
Heartbeat CPU 2 instructions: 70000000 cycles: 24072492 heartbeat IPC: 2.91104 cumulative IPC: 2.90788 (Simulation time: 64 hr 30 min 32 sec) 
 Total Blocks : 262144 Invalid Blocks : 0
Heartbeat CPU 3 instructions: 70000000 cycles: 24073429 heartbeat IPC: 2.91102 cumulative IPC: 2.90777 (Simulation time: 64 hr 30 min 34 sec) 
 Total Blocks : 262144 Invalid Blocks : 0
Heartbeat CPU 4 instructions: 70000000 cycles: 24075073 heartbeat IPC: 2.91032 cumulative IPC: 2.90757 (Simulation time: 64 hr 30 min 39 sec) 
 Total Blocks : 262144 Invalid Blocks : 0
Heartbeat CPU 5 instructions: 70000000 cycles: 24075960 heartbeat IPC: 2.91 cumulative IPC: 2.90746 (Simulation time: 64 hr 30 min 43 sec) 
 Total Blocks : 262144 Invalid Blocks : 0
Heartbeat CPU 6 instructions: 70000000 cycles: 24077753 heartbeat IPC: 2.91048 cumulative IPC: 2.90725 (Simulation time: 64 hr 30 min 48 sec) 
 Total Blocks : 262144 Invalid Blocks : 0
Heartbeat CPU 7 instructions: 70000000 cycles: 24078469 heartbeat IPC: 2.91033 cumulative IPC: 2.90716 (Simulation time: 64 hr 30 min 50 sec) 
 Total Blocks : 262144 Invalid Blocks : 0
Heartbeat CPU 0 instructions: 80000002 cycles: 27498709 heartbeat IPC: 2.91457 cumulative IPC: 2.90923 (Simulation time: 68 hr 22 min 14 sec) 
 Total Blocks : 262144 Invalid Blocks : 0
Heartbeat CPU 1 instructions: 80000002 cycles: 27502866 heartbeat IPC: 2.91434 cumulative IPC: 2.90879 (Simulation time: 68 hr 22 min 29 sec) 
 Total Blocks : 262144 Invalid Blocks : 0
Heartbeat CPU 2 instructions: 80000002 cycles: 27504461 heartbeat IPC: 2.91378 cumulative IPC: 2.90862 (Simulation time: 68 hr 22 min 35 sec) 
 Total Blocks : 262144 Invalid Blocks : 0
Heartbeat CPU 3 instructions: 80000002 cycles: 27505583 heartbeat IPC: 2.91362 cumulative IPC: 2.9085 (Simulation time: 68 hr 22 min 40 sec) 
 Total Blocks : 262144 Invalid Blocks : 0
Heartbeat CPU 4 instructions: 80000002 cycles: 27506844 heartbeat IPC: 2.91395 cumulative IPC: 2.90837 (Simulation time: 68 hr 22 min 44 sec) 
 Total Blocks : 262144 Invalid Blocks : 0
Heartbeat CPU 5 instructions: 80000000 cycles: 27507809 heartbeat IPC: 2.91388 cumulative IPC: 2.90827 (Simulation time: 68 hr 22 min 47 sec) 
 Total Blocks : 262144 Invalid Blocks : 0
Heartbeat CPU 6 instructions: 80000000 cycles: 27511136 heartbeat IPC: 2.91258 cumulative IPC: 2.90791 (Simulation time: 68 hr 23 min 0 sec) 
 Total Blocks : 262144 Invalid Blocks : 0
Heartbeat CPU 7 instructions: 80000002 cycles: 27511966 heartbeat IPC: 2.91248 cumulative IPC: 2.90783 (Simulation time: 68 hr 23 min 2 sec) 
 Total Blocks : 262144 Invalid Blocks : 0
Heartbeat CPU 0 instructions: 90000002 cycles: 30927427 heartbeat IPC: 2.91654 cumulative IPC: 2.91004 (Simulation time: 72 hr 18 min 54 sec) 
 Total Blocks : 262144 Invalid Blocks : 0
Heartbeat CPU 1 instructions: 90000003 cycles: 30933092 heartbeat IPC: 2.91526 cumulative IPC: 2.90951 (Simulation time: 72 hr 19 min 14 sec) 
 Total Blocks : 262144 Invalid Blocks : 0
Heartbeat CPU 2 instructions: 90000003 cycles: 30934212 heartbeat IPC: 2.91566 cumulative IPC: 2.9094 (Simulation time: 72 hr 19 min 18 sec) 
 Total Blocks : 262144 Invalid Blocks : 0
Heartbeat CPU 3 instructions: 90000003 cycles: 30935543 heartbeat IPC: 2.91549 cumulative IPC: 2.90928 (Simulation time: 72 hr 19 min 24 sec) 
 Total Blocks : 262144 Invalid Blocks : 0
Heartbeat CPU 4 instructions: 90000003 cycles: 30937523 heartbeat IPC: 2.91488 cumulative IPC: 2.90909 (Simulation time: 72 hr 19 min 30 sec) 
 Total Blocks : 262144 Invalid Blocks : 0
Heartbeat CPU 5 instructions: 90000003 cycles: 30938668 heartbeat IPC: 2.91472 cumulative IPC: 2.90898 (Simulation time: 72 hr 19 min 35 sec) 
 Total Blocks : 262144 Invalid Blocks : 0
Heartbeat CPU 6 instructions: 90000002 cycles: 30942005 heartbeat IPC: 2.91471 cumulative IPC: 2.90867 (Simulation time: 72 hr 19 min 48 sec) 
 Total Blocks : 262144 Invalid Blocks : 0
Heartbeat CPU 7 instructions: 90000003 cycles: 30943701 heartbeat IPC: 2.91398 cumulative IPC: 2.90851 (Simulation time: 72 hr 20 min 1 sec) 
 Total Blocks : 262144 Invalid Blocks : 0
Heartbeat CPU 0 instructions: 100000003 cycles: 34358831 heartbeat IPC: 2.91426 cumulative IPC: 2.91046 (Simulation time: 76 hr 22 min 36 sec) 
 Total Blocks : 262144 Invalid Blocks : 0
Heartbeat CPU 1 instructions: 100000000 cycles: 34364794 heartbeat IPC: 2.91401 cumulative IPC: 2.90995 (Simulation time: 76 hr 23 min 3 sec) 
 Total Blocks : 262144 Invalid Blocks : 0
Heartbeat CPU 2 instructions: 100000003 cycles: 34365785 heartbeat IPC: 2.91412 cumulative IPC: 2.90987 (Simulation time: 76 hr 23 min 9 sec) 
 Total Blocks : 262144 Invalid Blocks : 0
Heartbeat CPU 3 instructions: 100000003 cycles: 34367692 heartbeat IPC: 2.91363 cumulative IPC: 2.90971 (Simulation time: 76 hr 23 min 16 sec) 
 Total Blocks : 262144 Invalid Blocks : 0
Heartbeat CPU 4 instructions: 100000003 cycles: 34370136 heartbeat IPC: 2.91323 cumulative IPC: 2.9095 (Simulation time: 76 hr 23 min 30 sec) 
 Total Blocks : 262144 Invalid Blocks : 0
Heartbeat CPU 5 instructions: 100000003 cycles: 34371700 heartbeat IPC: 2.91288 cumulative IPC: 2.90937 (Simulation time: 76 hr 23 min 41 sec) 
 Total Blocks : 262144 Invalid Blocks : 0
Heartbeat CPU 6 instructions: 100000000 cycles: 34375653 heartbeat IPC: 2.91235 cumulative IPC: 2.90904 (Simulation time: 76 hr 24 min 0 sec) 
 Total Blocks : 262144 Invalid Blocks : 0
Heartbeat CPU 7 instructions: 100000003 cycles: 34377073 heartbeat IPC: 2.91259 cumulative IPC: 2.90892 (Simulation time: 76 hr 24 min 7 sec) 
 Total Blocks : 262144 Invalid Blocks : 0
Heartbeat CPU 0 instructions: 110000000 cycles: 37793644 heartbeat IPC: 2.91137 cumulative IPC: 2.91054 (Simulation time: 80 hr 41 min 26 sec) 
 Total Blocks : 262144 Invalid Blocks : 0
Heartbeat CPU 1 instructions: 110000000 cycles: 37799341 heartbeat IPC: 2.91159 cumulative IPC: 2.9101 (Simulation time: 80 hr 41 min 51 sec) 
 Total Blocks : 262144 Invalid Blocks : 0
Heartbeat CPU 2 instructions: 110000000 cycles: 37801490 heartbeat IPC: 2.91061 cumulative IPC: 2.90994 (Simulation time: 80 hr 42 min 0 sec) 
 Total Blocks : 262144 Invalid Blocks : 0
Heartbeat CPU 3 instructions: 110000000 cycles: 37803624 heartbeat IPC: 2.91042 cumulative IPC: 2.90977 (Simulation time: 80 hr 42 min 9 sec) 
 Total Blocks : 262144 Invalid Blocks : 0
Heartbeat CPU 4 instructions: 110000000 cycles: 37806071 heartbeat IPC: 2.91042 cumulative IPC: 2.90959 (Simulation time: 80 hr 42 min 22 sec) 
 Total Blocks : 262144 Invalid Blocks : 0
Heartbeat CPU 5 instructions: 110000000 cycles: 37809137 heartbeat IPC: 2.90914 cumulative IPC: 2.90935 (Simulation time: 80 hr 42 min 36 sec) 
 Total Blocks : 262144 Invalid Blocks : 0
Heartbeat CPU 6 instructions: 110000000 cycles: 37812242 heartbeat IPC: 2.90986 cumulative IPC: 2.90911 (Simulation time: 80 hr 42 min 54 sec) 
 Total Blocks : 262144 Invalid Blocks : 0
Heartbeat CPU 7 instructions: 110000000 cycles: 37813719 heartbeat IPC: 2.90981 cumulative IPC: 2.909 (Simulation time: 80 hr 43 min 3 sec) 
 Total Blocks : 262144 Invalid Blocks : 0
Heartbeat CPU 0 instructions: 120000003 cycles: 41230870 heartbeat IPC: 2.90932 cumulative IPC: 2.91044 (Simulation time: 85 hr 9 min 46 sec) 
 Total Blocks : 262144 Invalid Blocks : 0
Heartbeat CPU 1 instructions: 120000003 cycles: 41237510 heartbeat IPC: 2.90853 cumulative IPC: 2.90997 (Simulation time: 85 hr 10 min 17 sec) 
 Total Blocks : 262144 Invalid Blocks : 0
Heartbeat CPU 2 instructions: 120000003 cycles: 41239642 heartbeat IPC: 2.90854 cumulative IPC: 2.90982 (Simulation time: 85 hr 10 min 30 sec) 
 Total Blocks : 262144 Invalid Blocks : 0
Heartbeat CPU 3 instructions: 120000003 cycles: 41242533 heartbeat IPC: 2.9079 cumulative IPC: 2.90962 (Simulation time: 85 hr 10 min 44 sec) 
 Total Blocks : 262144 Invalid Blocks : 0
Heartbeat CPU 4 instructions: 120000003 cycles: 41245019 heartbeat IPC: 2.90787 cumulative IPC: 2.90944 (Simulation time: 85 hr 10 min 57 sec) 
 Total Blocks : 262144 Invalid Blocks : 0
Heartbeat CPU 5 instructions: 120000003 cycles: 41248001 heartbeat IPC: 2.90794 cumulative IPC: 2.90923 (Simulation time: 85 hr 11 min 13 sec) 
 Total Blocks : 262144 Invalid Blocks : 0
Heartbeat CPU 6 instructions: 120000003 cycles: 41251391 heartbeat IPC: 2.9077 cumulative IPC: 2.90899 (Simulation time: 85 hr 22 min 21 sec) 
 Total Blocks : 262144 Invalid Blocks : 0
Heartbeat CPU 7 instructions: 120000003 cycles: 41254044 heartbeat IPC: 2.9067 cumulative IPC: 2.90881 (Simulation time: 85 hr 31 min 48 sec) 
 Total Blocks : 262144 Invalid Blocks : 0
Heartbeat CPU 0 instructions: 130000002 cycles: 44665393 heartbeat IPC: 2.91161 cumulative IPC: 2.91053 (Simulation time: 111 hr 48 min 21 sec) 
 Total Blocks : 262144 Invalid Blocks : 0
Heartbeat CPU 1 instructions: 130000002 cycles: 44673163 heartbeat IPC: 2.91065 cumulative IPC: 2.91002 (Simulation time: 111 hr 48 min 48 sec) 
 Total Blocks : 262144 Invalid Blocks : 0
Heartbeat CPU 2 instructions: 130000002 cycles: 44674239 heartbeat IPC: 2.91155 cumulative IPC: 2.90995 (Simulation time: 111 hr 48 min 51 sec) 
 Total Blocks : 262144 Invalid Blocks : 0
Heartbeat CPU 3 instructions: 130000002 cycles: 44678254 heartbeat IPC: 2.9106 cumulative IPC: 2.90969 (Simulation time: 111 hr 49 min 6 sec) 
 Total Blocks : 262144 Invalid Blocks : 0
Heartbeat CPU 4 instructions: 130000002 cycles: 44681304 heartbeat IPC: 2.91012 cumulative IPC: 2.90949 (Simulation time: 111 hr 49 min 17 sec) 
 Total Blocks : 262144 Invalid Blocks : 0
Heartbeat CPU 5 instructions: 130000002 cycles: 44683577 heartbeat IPC: 2.91072 cumulative IPC: 2.90935 (Simulation time: 111 hr 49 min 25 sec) 
 Total Blocks : 262144 Invalid Blocks : 0
Heartbeat CPU 6 instructions: 130000002 cycles: 44687261 heartbeat IPC: 2.91047 cumulative IPC: 2.90911 (Simulation time: 111 hr 49 min 39 sec) 
 Total Blocks : 262144 Invalid Blocks : 0
Heartbeat CPU 7 instructions: 130000002 cycles: 44690806 heartbeat IPC: 2.90972 cumulative IPC: 2.90888 (Simulation time: 111 hr 49 min 51 sec) 
 Total Blocks : 262144 Invalid Blocks : 0
Heartbeat CPU 0 instructions: 140000003 cycles: 48099209 heartbeat IPC: 2.91221 cumulative IPC: 2.91065 (Simulation time: 115 hr 14 min 5 sec) 
 Total Blocks : 262144 Invalid Blocks : 0
Heartbeat CPU 1 instructions: 140000002 cycles: 48107437 heartbeat IPC: 2.91182 cumulative IPC: 2.91015 (Simulation time: 115 hr 14 min 36 sec) 
 Total Blocks : 262144 Invalid Blocks : 0
Heartbeat CPU 2 instructions: 140000003 cycles: 48108953 heartbeat IPC: 2.91145 cumulative IPC: 2.91006 (Simulation time: 115 hr 14 min 41 sec) 
 Total Blocks : 262144 Invalid Blocks : 0
Heartbeat CPU 3 instructions: 140000002 cycles: 48113545 heartbeat IPC: 2.91096 cumulative IPC: 2.90978 (Simulation time: 115 hr 15 min 0 sec) 
 Total Blocks : 262144 Invalid Blocks : 0
Heartbeat CPU 4 instructions: 140000002 cycles: 48116647 heartbeat IPC: 2.91092 cumulative IPC: 2.9096 (Simulation time: 115 hr 15 min 13 sec) 
 Total Blocks : 262144 Invalid Blocks : 0
Heartbeat CPU 5 instructions: 140000002 cycles: 48119549 heartbeat IPC: 2.91038 cumulative IPC: 2.90942 (Simulation time: 115 hr 15 min 24 sec) 
 Total Blocks : 262144 Invalid Blocks : 0
Heartbeat CPU 6 instructions: 140000002 cycles: 48123522 heartbeat IPC: 2.91014 cumulative IPC: 2.90918 (Simulation time: 115 hr 15 min 37 sec) 
 Total Blocks : 262144 Invalid Blocks : 0
Heartbeat CPU 7 instructions: 140000002 cycles: 48126780 heartbeat IPC: 2.91038 cumulative IPC: 2.90898 (Simulation time: 115 hr 15 min 49 sec) 
 Total Blocks : 262144 Invalid Blocks : 0
Heartbeat CPU 0 instructions: 150000002 cycles: 51532105 heartbeat IPC: 2.91299 cumulative IPC: 2.91081 (Simulation time: 118 hr 40 min 21 sec) 
 Total Blocks : 262144 Invalid Blocks : 0
Heartbeat CPU 1 instructions: 150000003 cycles: 51540197 heartbeat IPC: 2.91311 cumulative IPC: 2.91035 (Simulation time: 118 hr 40 min 50 sec) 
 Total Blocks : 262144 Invalid Blocks : 0
Heartbeat CPU 2 instructions: 150000002 cycles: 51542533 heartbeat IPC: 2.91241 cumulative IPC: 2.91022 (Simulation time: 118 hr 40 min 58 sec) 
 Total Blocks : 262144 Invalid Blocks : 0
Heartbeat CPU 3 instructions: 150000003 cycles: 51547228 heartbeat IPC: 2.91233 cumulative IPC: 2.90995 (Simulation time: 118 hr 41 min 16 sec) 
 Total Blocks : 262144 Invalid Blocks : 0
Heartbeat CPU 4 instructions: 150000002 cycles: 51550814 heartbeat IPC: 2.91191 cumulative IPC: 2.90975 (Simulation time: 118 hr 41 min 28 sec) 
 Total Blocks : 262144 Invalid Blocks : 0
Heartbeat CPU 5 instructions: 150000003 cycles: 51554144 heartbeat IPC: 2.91155 cumulative IPC: 2.90956 (Simulation time: 118 hr 41 min 42 sec) 
 Total Blocks : 262144 Invalid Blocks : 0
Heartbeat CPU 6 instructions: 150000003 cycles: 51558718 heartbeat IPC: 2.91104 cumulative IPC: 2.9093 (Simulation time: 118 hr 41 min 57 sec) 
 Total Blocks : 262144 Invalid Blocks : 0
Heartbeat CPU 7 instructions: 150000002 cycles: 51562733 heartbeat IPC: 2.9104 cumulative IPC: 2.90908 (Simulation time: 118 hr 42 min 11 sec) 
 Total Blocks : 262144 Invalid Blocks : 0
Heartbeat CPU 0 instructions: 160000002 cycles: 54963631 heartbeat IPC: 2.91416 cumulative IPC: 2.91102 (Simulation time: 122 hr 13 min 24 sec) 
 Total Blocks : 262144 Invalid Blocks : 0
Heartbeat CPU 1 instructions: 160000002 cycles: 54971634 heartbeat IPC: 2.91423 cumulative IPC: 2.91059 (Simulation time: 122 hr 13 min 56 sec) 
 Total Blocks : 262144 Invalid Blocks : 0
Heartbeat CPU 2 instructions: 160000002 cycles: 54974721 heartbeat IPC: 2.91359 cumulative IPC: 2.91043 (Simulation time: 122 hr 14 min 5 sec) 
 Total Blocks : 262144 Invalid Blocks : 0
Heartbeat CPU 3 instructions: 160000002 cycles: 54979270 heartbeat IPC: 2.91372 cumulative IPC: 2.91019 (Simulation time: 122 hr 14 min 24 sec) 
 Total Blocks : 262144 Invalid Blocks : 0
Heartbeat CPU 4 instructions: 160000002 cycles: 54983632 heartbeat IPC: 2.91306 cumulative IPC: 2.90996 (Simulation time: 122 hr 14 min 41 sec) 
 Total Blocks : 262144 Invalid Blocks : 0
Heartbeat CPU 5 instructions: 160000002 cycles: 54987654 heartbeat IPC: 2.91247 cumulative IPC: 2.90974 (Simulation time: 122 hr 14 min 57 sec) 
 Total Blocks : 262144 Invalid Blocks : 0
Heartbeat CPU 6 instructions: 160000002 cycles: 54992220 heartbeat IPC: 2.91248 cumulative IPC: 2.9095 (Simulation time: 122 hr 15 min 14 sec) 
 Total Blocks : 262144 Invalid Blocks : 0
Heartbeat CPU 7 instructions: 160000002 cycles: 54996559 heartbeat IPC: 2.9122 cumulative IPC: 2.90927 (Simulation time: 122 hr 15 min 31 sec) 
 Total Blocks : 262144 Invalid Blocks : 0
Heartbeat CPU 0 instructions: 170000002 cycles: 58396497 heartbeat IPC: 2.91302 cumulative IPC: 2.91113 (Simulation time: 125 hr 52 min 57 sec) 
 Total Blocks : 262144 Invalid Blocks : 0
Heartbeat CPU 1 instructions: 170000002 cycles: 58405063 heartbeat IPC: 2.91254 cumulative IPC: 2.91071 (Simulation time: 125 hr 53 min 33 sec) 
 Total Blocks : 262144 Invalid Blocks : 0
Heartbeat CPU 2 instructions: 170000002 cycles: 58408877 heartbeat IPC: 2.91192 cumulative IPC: 2.91052 (Simulation time: 125 hr 53 min 49 sec) 
 Total Blocks : 262144 Invalid Blocks : 0
Heartbeat CPU 3 instructions: 170000002 cycles: 58413606 heartbeat IPC: 2.91177 cumulative IPC: 2.91028 (Simulation time: 125 hr 54 min 7 sec) 
 Total Blocks : 262144 Invalid Blocks : 0
Heartbeat CPU 4 instructions: 170000002 cycles: 58418092 heartbeat IPC: 2.91167 cumulative IPC: 2.91006 (Simulation time: 125 hr 54 min 23 sec) 
 Total Blocks : 262144 Invalid Blocks : 0
Heartbeat CPU 5 instructions: 170000002 cycles: 58423234 heartbeat IPC: 2.91072 cumulative IPC: 2.9098 (Simulation time: 125 hr 54 min 44 sec) 
 Total Blocks : 262144 Invalid Blocks : 0
Heartbeat CPU 6 instructions: 170000002 cycles: 58427148 heartbeat IPC: 2.91127 cumulative IPC: 2.90961 (Simulation time: 125 hr 54 min 59 sec) 
 Total Blocks : 262144 Invalid Blocks : 0
Heartbeat CPU 7 instructions: 170000002 cycles: 58431550 heartbeat IPC: 2.91122 cumulative IPC: 2.90939 (Simulation time: 125 hr 55 min 16 sec) 
 Total Blocks : 262144 Invalid Blocks : 0
Heartbeat CPU 0 instructions: 180000001 cycles: 61831630 heartbeat IPC: 2.9111 cumulative IPC: 2.91113 (Simulation time: 129 hr 35 min 42 sec) 
 Total Blocks : 262144 Invalid Blocks : 0
Heartbeat CPU 1 instructions: 180000001 cycles: 61840611 heartbeat IPC: 2.91074 cumulative IPC: 2.91071 (Simulation time: 129 hr 36 min 19 sec) 
 Total Blocks : 262144 Invalid Blocks : 0
Heartbeat CPU 2 instructions: 180000001 cycles: 61844379 heartbeat IPC: 2.91078 cumulative IPC: 2.91053 (Simulation time: 129 hr 36 min 34 sec) 
 Total Blocks : 262144 Invalid Blocks : 0
Heartbeat CPU 3 instructions: 180000001 cycles: 61849281 heartbeat IPC: 2.91064 cumulative IPC: 2.9103 (Simulation time: 129 hr 36 min 54 sec) 
 Total Blocks : 262144 Invalid Blocks : 0
Heartbeat CPU 4 instructions: 180000001 cycles: 61854577 heartbeat IPC: 2.90995 cumulative IPC: 2.91005 (Simulation time: 129 hr 37 min 16 sec) 
 Total Blocks : 262144 Invalid Blocks : 0
Heartbeat CPU 5 instructions: 180000001 cycles: 61859902 heartbeat IPC: 2.90979 cumulative IPC: 2.9098 (Simulation time: 129 hr 37 min 36 sec) 
 Total Blocks : 262144 Invalid Blocks : 0
Heartbeat CPU 6 instructions: 180000001 cycles: 61864554 heartbeat IPC: 2.90917 cumulative IPC: 2.90958 (Simulation time: 129 hr 37 min 54 sec) 
 Total Blocks : 262144 Invalid Blocks : 0
Heartbeat CPU 7 instructions: 180000001 cycles: 61868780 heartbeat IPC: 2.90932 cumulative IPC: 2.90938 (Simulation time: 129 hr 38 min 10 sec) 
 Total Blocks : 262144 Invalid Blocks : 0
Heartbeat CPU 0 instructions: 190000003 cycles: 65268040 heartbeat IPC: 2.91001 cumulative IPC: 2.91107 (Simulation time: 133 hr 19 min 38 sec) 
 Total Blocks : 262144 Invalid Blocks : 0
Heartbeat CPU 1 instructions: 190000003 cycles: 65276392 heartbeat IPC: 2.91055 cumulative IPC: 2.9107 (Simulation time: 133 hr 20 min 11 sec) 
 Total Blocks : 262144 Invalid Blocks : 0
Heartbeat CPU 2 instructions: 190000003 cycles: 65281129 heartbeat IPC: 2.90973 cumulative IPC: 2.91049 (Simulation time: 133 hr 20 min 28 sec) 
 Total Blocks : 262144 Invalid Blocks : 0
Heartbeat CPU 3 instructions: 190000003 cycles: 65286234 heartbeat IPC: 2.90955 cumulative IPC: 2.91026 (Simulation time: 133 hr 20 min 47 sec) 
 Total Blocks : 262144 Invalid Blocks : 0
Heartbeat CPU 4 instructions: 190000003 cycles: 65292397 heartbeat IPC: 2.90882 cumulative IPC: 2.90999 (Simulation time: 133 hr 21 min 11 sec) 
 Total Blocks : 262144 Invalid Blocks : 0
Heartbeat CPU 5 instructions: 190000003 cycles: 65297771 heartbeat IPC: 2.90878 cumulative IPC: 2.90975 (Simulation time: 133 hr 21 min 30 sec) 
 Total Blocks : 262144 Invalid Blocks : 0
Heartbeat CPU 6 instructions: 190000003 cycles: 65302463 heartbeat IPC: 2.90875 cumulative IPC: 2.90954 (Simulation time: 133 hr 21 min 47 sec) 
 Total Blocks : 262144 Invalid Blocks : 0
Heartbeat CPU 7 instructions: 190000003 cycles: 65307485 heartbeat IPC: 2.90807 cumulative IPC: 2.90931 (Simulation time: 133 hr 22 min 7 sec) 
 Total Blocks : 262144 Invalid Blocks : 0
Heartbeat CPU 0 instructions: 200000003 cycles: 68705224 heartbeat IPC: 2.90936 cumulative IPC: 2.91099 (Simulation time: 137 hr 3 min 2 sec) 
 Total Blocks : 262144 Invalid Blocks : 0
Heartbeat CPU 1 instructions: 200000003 cycles: 68715235 heartbeat IPC: 2.90795 cumulative IPC: 2.91056 (Simulation time: 137 hr 3 min 42 sec) 
 Total Blocks : 262144 Invalid Blocks : 0
Heartbeat CPU 2 instructions: 200000002 cycles: 68719677 heartbeat IPC: 2.9082 cumulative IPC: 2.91037 (Simulation time: 137 hr 4 min 0 sec) 
 Total Blocks : 262144 Invalid Blocks : 0
Heartbeat CPU 3 instructions: 200000002 cycles: 68725375 heartbeat IPC: 2.9077 cumulative IPC: 2.91013 (Simulation time: 137 hr 4 min 22 sec) 
 Total Blocks : 262144 Invalid Blocks : 0
Heartbeat CPU 4 instructions: 200000002 cycles: 68732130 heartbeat IPC: 2.9072 cumulative IPC: 2.90985 (Simulation time: 137 hr 4 min 47 sec) 
 Total Blocks : 262144 Invalid Blocks : 0
Heartbeat CPU 5 instructions: 200000002 cycles: 68738200 heartbeat IPC: 2.90661 cumulative IPC: 2.90959 (Simulation time: 137 hr 5 min 9 sec) 
 Total Blocks : 262144 Invalid Blocks : 0
Heartbeat CPU 6 instructions: 200000003 cycles: 68743022 heartbeat IPC: 2.9065 cumulative IPC: 2.90939 (Simulation time: 137 hr 5 min 29 sec) 
 Total Blocks : 262144 Invalid Blocks : 0
Heartbeat CPU 7 instructions: 200000002 cycles: 68748261 heartbeat IPC: 2.90632 cumulative IPC: 2.90916 (Simulation time: 137 hr 5 min 47 sec) 
 Total Blocks : 262144 Invalid Blocks : 0

Warmup complete CPU 0 instructions: 200125086 cycles: 68748261 (Simulation time: 137 hr 5 min 47 sec) 
Warmup complete CPU 1 instructions: 200095884 cycles: 68748261 (Simulation time: 137 hr 5 min 47 sec) 
Warmup complete CPU 2 instructions: 200082870 cycles: 68748261 (Simulation time: 137 hr 5 min 47 sec) 
Warmup complete CPU 3 instructions: 200066278 cycles: 68748261 (Simulation time: 137 hr 5 min 47 sec) 
Warmup complete CPU 4 instructions: 200047050 cycles: 68748261 (Simulation time: 137 hr 5 min 47 sec) 
Warmup complete CPU 5 instructions: 200029308 cycles: 68748261 (Simulation time: 137 hr 5 min 47 sec) 
Warmup complete CPU 6 instructions: 200015218 cycles: 68748261 (Simulation time: 137 hr 5 min 47 sec) 
Warmup complete CPU 7 instructions: 200000002 cycles: 68748261 (Simulation time: 137 hr 5 min 47 sec) 

Heartbeat CPU 0 instructions: 210000002 cycles: 152058871 heartbeat IPC: 0.119971 cumulative IPC: 0.118531 (Simulation time: 140 hr 58 min 12 sec) 
 Total Blocks : 262144 Invalid Blocks : 0
Heartbeat CPU 1 instructions: 210000002 cycles: 152283036 heartbeat IPC: 0.119663 cumulative IPC: 0.118563 (Simulation time: 140 hr 58 min 50 sec) 
 Total Blocks : 262144 Invalid Blocks : 0
Heartbeat CPU 2 instructions: 210000003 cycles: 152454464 heartbeat IPC: 0.119425 cumulative IPC: 0.118475 (Simulation time: 140 hr 59 min 18 sec) 
 Total Blocks : 262144 Invalid Blocks : 0
Heartbeat CPU 3 instructions: 210000003 cycles: 152593243 heartbeat IPC: 0.119235 cumulative IPC: 0.118477 (Simulation time: 140 hr 59 min 42 sec) 
 Total Blocks : 262144 Invalid Blocks : 0
Heartbeat CPU 4 instructions: 210000002 cycles: 152726134 heartbeat IPC: 0.119056 cumulative IPC: 0.118519 (Simulation time: 141 hr 0 min 5 sec) 
 Total Blocks : 262144 Invalid Blocks : 0
Heartbeat CPU 7 instructions: 210000002 cycles: 153042668 heartbeat IPC: 0.118632 cumulative IPC: 0.118632 (Simulation time: 141 hr 0 min 56 sec) 
 Total Blocks : 262144 Invalid Blocks : 0
Heartbeat CPU 5 instructions: 210000002 cycles: 153189060 heartbeat IPC: 0.118412 cumulative IPC: 0.118079 (Simulation time: 141 hr 1 min 21 sec) 
 Total Blocks : 262144 Invalid Blocks : 0
Heartbeat CPU 6 instructions: 210000002 cycles: 153282649 heartbeat IPC: 0.118288 cumulative IPC: 0.118115 (Simulation time: 141 hr 1 min 38 sec) 
 Total Blocks : 262144 Invalid Blocks : 0
Heartbeat CPU 1 instructions: 220000000 cycles: 237154631 heartbeat IPC: 0.117825 cumulative IPC: 0.118191 (Simulation time: 145 hr 0 min 34 sec) 
 Total Blocks : 262144 Invalid Blocks : 0
Heartbeat CPU 2 instructions: 220000000 cycles: 237439698 heartbeat IPC: 0.117667 cumulative IPC: 0.118068 (Simulation time: 145 hr 1 min 22 sec) 
 Total Blocks : 262144 Invalid Blocks : 0
Heartbeat CPU 3 instructions: 220000000 cycles: 237629125 heartbeat IPC: 0.117597 cumulative IPC: 0.118034 (Simulation time: 145 hr 1 min 53 sec) 
 Total Blocks : 262144 Invalid Blocks : 0
Heartbeat CPU 0 instructions: 220000000 cycles: 237720187 heartbeat IPC: 0.116739 cumulative IPC: 0.117623 (Simulation time: 145 hr 2 min 8 sec) 
 Total Blocks : 262144 Invalid Blocks : 0
Heartbeat CPU 4 instructions: 220000000 cycles: 237726226 heartbeat IPC: 0.117647 cumulative IPC: 0.11808 (Simulation time: 145 hr 2 min 10 sec) 
 Total Blocks : 262144 Invalid Blocks : 0
Heartbeat CPU 7 instructions: 220000000 cycles: 238052795 heartbeat IPC: 0.117633 cumulative IPC: 0.11813 (Simulation time: 145 hr 3 min 7 sec) 
 Total Blocks : 262144 Invalid Blocks : 0
Heartbeat CPU 5 instructions: 220000000 cycles: 238133754 heartbeat IPC: 0.117724 cumulative IPC: 0.117901 (Simulation time: 145 hr 3 min 19 sec) 
 Total Blocks : 262144 Invalid Blocks : 0
Heartbeat CPU 6 instructions: 220000000 cycles: 238154615 heartbeat IPC: 0.117825 cumulative IPC: 0.117969 (Simulation time: 145 hr 3 min 23 sec) 
 Total Blocks : 262144 Invalid Blocks : 0
Heartbeat CPU 1 instructions: 230000002 cycles: 322514191 heartbeat IPC: 0.117152 cumulative IPC: 0.117841 (Simulation time: 149 hr 3 min 15 sec) 
 Total Blocks : 262144 Invalid Blocks : 0
Heartbeat CPU 2 instructions: 230000002 cycles: 322788522 heartbeat IPC: 0.117166 cumulative IPC: 0.117765 (Simulation time: 149 hr 4 min 3 sec) 
 Total Blocks : 262144 Invalid Blocks : 0
Heartbeat CPU 3 instructions: 230000002 cycles: 322880192 heartbeat IPC: 0.117301 cumulative IPC: 0.117788 (Simulation time: 149 hr 4 min 18 sec) 
 Total Blocks : 262144 Invalid Blocks : 0
Heartbeat CPU 4 instructions: 230000002 cycles: 323065214 heartbeat IPC: 0.11718 cumulative IPC: 0.117778 (Simulation time: 149 hr 4 min 50 sec) 
 Total Blocks : 262144 Invalid Blocks : 0
Heartbeat CPU 7 instructions: 230000002 cycles: 323283132 heartbeat IPC: 0.117329 cumulative IPC: 0.117862 (Simulation time: 149 hr 5 min 28 sec) 
 Total Blocks : 262144 Invalid Blocks : 0
Heartbeat CPU 6 instructions: 230000002 cycles: 323341390 heartbeat IPC: 0.117389 cumulative IPC: 0.117775 (Simulation time: 149 hr 5 min 38 sec) 
 Total Blocks : 262144 Invalid Blocks : 0
Heartbeat CPU 0 instructions: 230000002 cycles: 323413466 heartbeat IPC: 0.116695 cumulative IPC: 0.117311 (Simulation time: 149 hr 5 min 50 sec) 
 Total Blocks : 262144 Invalid Blocks : 0
Heartbeat CPU 5 instructions: 230000002 cycles: 324363199 heartbeat IPC: 0.11597 cumulative IPC: 0.117249 (Simulation time: 149 hr 8 min 36 sec) 
 Total Blocks : 262144 Invalid Blocks : 0
Heartbeat CPU 1 instructions: 240000000 cycles: 408590251 heartbeat IPC: 0.116176 cumulative IPC: 0.11742 (Simulation time: 153 hr 18 min 22 sec) 
 Total Blocks : 262144 Invalid Blocks : 0
Heartbeat CPU 2 instructions: 240000001 cycles: 408659164 heartbeat IPC: 0.116454 cumulative IPC: 0.117434 (Simulation time: 153 hr 18 min 33 sec) 
 Total Blocks : 262144 Invalid Blocks : 0
Heartbeat CPU 4 instructions: 240000000 cycles: 408797454 heartbeat IPC: 0.116642 cumulative IPC: 0.117492 (Simulation time: 153 hr 19 min 0 sec) 
 Total Blocks : 262144 Invalid Blocks : 0
Heartbeat CPU 3 instructions: 240000000 cycles: 408859476 heartbeat IPC: 0.116307 cumulative IPC: 0.117414 (Simulation time: 153 hr 19 min 11 sec) 
 Total Blocks : 262144 Invalid Blocks : 0
Heartbeat CPU 7 instructions: 240000001 cycles: 409047639 heartbeat IPC: 0.116598 cumulative IPC: 0.117544 (Simulation time: 153 hr 19 min 46 sec) 
 Total Blocks : 262144 Invalid Blocks : 0
Heartbeat CPU 6 instructions: 240000001 cycles: 409106838 heartbeat IPC: 0.116597 cumulative IPC: 0.117478 (Simulation time: 153 hr 19 min 57 sec) 
 Total Blocks : 262144 Invalid Blocks : 0
Heartbeat CPU 0 instructions: 240000001 cycles: 409767838 heartbeat IPC: 0.115802 cumulative IPC: 0.116929 (Simulation time: 153 hr 21 min 59 sec) 
 Total Blocks : 262144 Invalid Blocks : 0
Heartbeat CPU 5 instructions: 240000000 cycles: 410230415 heartbeat IPC: 0.116459 cumulative IPC: 0.117051 (Simulation time: 153 hr 23 min 26 sec) 
 Total Blocks : 262144 Invalid Blocks : 0
Heartbeat CPU 2 instructions: 250000000 cycles: 495060248 heartbeat IPC: 0.115739 cumulative IPC: 0.117091 (Simulation time: 157 hr 44 min 29 sec) 
 Total Blocks : 262144 Invalid Blocks : 0
Heartbeat CPU 4 instructions: 250000000 cycles: 495249481 heartbeat IPC: 0.115671 cumulative IPC: 0.117123 (Simulation time: 157 hr 45 min 5 sec) 
 Total Blocks : 262144 Invalid Blocks : 0
Heartbeat CPU 3 instructions: 250000000 cycles: 495297520 heartbeat IPC: 0.11569 cumulative IPC: 0.117064 (Simulation time: 157 hr 45 min 14 sec) 
 Total Blocks : 262144 Invalid Blocks : 0
Heartbeat CPU 7 instructions: 250000000 cycles: 495417055 heartbeat IPC: 0.115782 cumulative IPC: 0.117187 (Simulation time: 157 hr 45 min 39 sec) 
 Total Blocks : 262144 Invalid Blocks : 0
Heartbeat CPU 1 instructions: 250000000 cycles: 495443930 heartbeat IPC: 0.115136 cumulative IPC: 0.116955 (Simulation time: 157 hr 45 min 43 sec) 
 Total Blocks : 262144 Invalid Blocks : 0
Heartbeat CPU 6 instructions: 250000000 cycles: 495536707 heartbeat IPC: 0.115701 cumulative IPC: 0.117118 (Simulation time: 157 hr 45 min 59 sec) 
 Total Blocks : 262144 Invalid Blocks : 0
Heartbeat CPU 0 instructions: 250000000 cycles: 496075629 heartbeat IPC: 0.115864 cumulative IPC: 0.116714 (Simulation time: 157 hr 47 min 43 sec) 
 Total Blocks : 262144 Invalid Blocks : 0
Heartbeat CPU 5 instructions: 250000000 cycles: 496954438 heartbeat IPC: 0.115308 cumulative IPC: 0.116698 (Simulation time: 157 hr 50 min 31 sec) 
 Total Blocks : 262144 Invalid Blocks : 0
Heartbeat CPU 2 instructions: 260000000 cycles: 582603510 heartbeat IPC: 0.114229 cumulative IPC: 0.116603 (Simulation time: 162 hr 7 min 6 sec) 
 Total Blocks : 262144 Invalid Blocks : 0
Heartbeat CPU 4 instructions: 260000001 cycles: 582713380 heartbeat IPC: 0.114333 cumulative IPC: 0.116648 (Simulation time: 162 hr 7 min 27 sec) 
 Total Blocks : 262144 Invalid Blocks : 0
Heartbeat CPU 3 instructions: 260000001 cycles: 582756728 heartbeat IPC: 0.114339 cumulative IPC: 0.116601 (Simulation time: 162 hr 7 min 35 sec) 
 Total Blocks : 262144 Invalid Blocks : 0
Heartbeat CPU 7 instructions: 260000000 cycles: 582812224 heartbeat IPC: 0.114423 cumulative IPC: 0.116717 (Simulation time: 162 hr 7 min 45 sec) 
 Total Blocks : 262144 Invalid Blocks : 0
Heartbeat CPU 6 instructions: 260000003 cycles: 582941651 heartbeat IPC: 0.11441 cumulative IPC: 0.116658 (Simulation time: 162 hr 8 min 10 sec) 
 Total Blocks : 262144 Invalid Blocks : 0
Heartbeat CPU 1 instructions: 260000003 cycles: 583126729 heartbeat IPC: 0.114047 cumulative IPC: 0.116459 (Simulation time: 162 hr 8 min 44 sec) 
 Total Blocks : 262144 Invalid Blocks : 0
Heartbeat CPU 0 instructions: 260000003 cycles: 583588716 heartbeat IPC: 0.114269 cumulative IPC: 0.116298 (Simulation time: 162 hr 10 min 7 sec) 
 Total Blocks : 262144 Invalid Blocks : 0
Heartbeat CPU 5 instructions: 260000000 cycles: 585482351 heartbeat IPC: 0.112959 cumulative IPC: 0.116057 (Simulation time: 162 hr 15 min 46 sec) 
 Total Blocks : 262144 Invalid Blocks : 0
Heartbeat CPU 2 instructions: 270000003 cycles: 669897135 heartbeat IPC: 0.114556 cumulative IPC: 0.116306 (Simulation time: 166 hr 28 min 37 sec) 
 Total Blocks : 262144 Invalid Blocks : 0
Heartbeat CPU 7 instructions: 270000003 cycles: 670067069 heartbeat IPC: 0.114607 cumulative IPC: 0.116411 (Simulation time: 166 hr 29 min 8 sec) 
 Total Blocks : 262144 Invalid Blocks : 0
Heartbeat CPU 4 instructions: 270000003 cycles: 670202644 heartbeat IPC: 0.1143 cumulative IPC: 0.116306 (Simulation time: 166 hr 29 min 33 sec) 
 Total Blocks : 262144 Invalid Blocks : 0
Heartbeat CPU 6 instructions: 270000003 cycles: 670355023 heartbeat IPC: 0.114399 cumulative IPC: 0.11633 (Simulation time: 166 hr 29 min 59 sec) 
 Total Blocks : 262144 Invalid Blocks : 0
Heartbeat CPU 1 instructions: 270000003 cycles: 670457586 heartbeat IPC: 0.114507 cumulative IPC: 0.116176 (Simulation time: 166 hr 30 min 19 sec) 
 Total Blocks : 262144 Invalid Blocks : 0
Heartbeat CPU 3 instructions: 270000003 cycles: 670642290 heartbeat IPC: 0.113784 cumulative IPC: 0.116189 (Simulation time: 166 hr 30 min 52 sec) 
 Total Blocks : 262144 Invalid Blocks : 0
Heartbeat CPU 0 instructions: 270000003 cycles: 670876830 heartbeat IPC: 0.114563 cumulative IPC: 0.116047 (Simulation time: 166 hr 31 min 33 sec) 
 Total Blocks : 262144 Invalid Blocks : 0
Heartbeat CPU 5 instructions: 270000003 cycles: 673369905 heartbeat IPC: 0.113782 cumulative IPC: 0.115726 (Simulation time: 166 hr 39 min 4 sec) 
 Total Blocks : 262144 Invalid Blocks : 0
Heartbeat CPU 2 instructions: 280000000 cycles: 758025578 heartbeat IPC: 0.113471 cumulative IPC: 0.115943 (Simulation time: 170 hr 55 min 58 sec) 
 Total Blocks : 262144 Invalid Blocks : 0
Heartbeat CPU 7 instructions: 280000000 cycles: 758393987 heartbeat IPC: 0.113216 cumulative IPC: 0.116002 (Simulation time: 170 hr 57 min 13 sec) 
 Total Blocks : 262144 Invalid Blocks : 0
Heartbeat CPU 1 instructions: 280000000 cycles: 758585662 heartbeat IPC: 0.113471 cumulative IPC: 0.11583 (Simulation time: 170 hr 57 min 49 sec) 
 Total Blocks : 262144 Invalid Blocks : 0
Heartbeat CPU 4 instructions: 280000000 cycles: 758653112 heartbeat IPC: 0.113058 cumulative IPC: 0.11589 (Simulation time: 170 hr 58 min 1 sec) 
 Total Blocks : 262144 Invalid Blocks : 0
Heartbeat CPU 6 instructions: 280000000 cycles: 758695330 heartbeat IPC: 0.113199 cumulative IPC: 0.115929 (Simulation time: 170 hr 58 min 9 sec) 
 Total Blocks : 262144 Invalid Blocks : 0
Heartbeat CPU 0 instructions: 280000000 cycles: 759081397 heartbeat IPC: 0.113373 cumulative IPC: 0.115705 (Simulation time: 170 hr 59 min 22 sec) 
 Total Blocks : 262144 Invalid Blocks : 0
Heartbeat CPU 3 instructions: 280000000 cycles: 759100999 heartbeat IPC: 0.113047 cumulative IPC: 0.115787 (Simulation time: 170 hr 59 min 25 sec) 
 Total Blocks : 262144 Invalid Blocks : 0
Heartbeat CPU 5 instructions: 280000000 cycles: 761714883 heartbeat IPC: 0.113193 cumulative IPC: 0.115403 (Simulation time: 171 hr 7 min 27 sec) 
 Total Blocks : 262144 Invalid Blocks : 0
Heartbeat CPU 2 instructions: 290000002 cycles: 847152481 heartbeat IPC: 0.1122 cumulative IPC: 0.115515 (Simulation time: 175 hr 32 min 10 sec) 
 Total Blocks : 262144 Invalid Blocks : 0
Heartbeat CPU 7 instructions: 290000002 cycles: 847849847 heartbeat IPC: 0.111787 cumulative IPC: 0.115518 (Simulation time: 175 hr 33 min 21 sec) 
 Total Blocks : 262144 Invalid Blocks : 0
Heartbeat CPU 4 instructions: 290000002 cycles: 848361816 heartbeat IPC: 0.111472 cumulative IPC: 0.115381 (Simulation time: 175 hr 34 min 20 sec) 
 Total Blocks : 262144 Invalid Blocks : 0
Heartbeat CPU 1 instructions: 290000001 cycles: 848453119 heartbeat IPC: 0.111275 cumulative IPC: 0.115305 (Simulation time: 175 hr 34 min 33 sec) 
 Total Blocks : 262144 Invalid Blocks : 0
Heartbeat CPU 3 instructions: 290000002 cycles: 848841293 heartbeat IPC: 0.111433 cumulative IPC: 0.115286 (Simulation time: 175 hr 36 min 0 sec) 
 Total Blocks : 262144 Invalid Blocks : 0
Heartbeat CPU 6 instructions: 290000001 cycles: 848904104 heartbeat IPC: 0.110854 cumulative IPC: 0.115342 (Simulation time: 175 hr 36 min 16 sec) 
 Total Blocks : 262144 Invalid Blocks : 0
Heartbeat CPU 0 instructions: 290000001 cycles: 848939613 heartbeat IPC: 0.111286 cumulative IPC: 0.115196 (Simulation time: 175 hr 36 min 27 sec) 
 Total Blocks : 262144 Invalid Blocks : 0
Heartbeat CPU 5 instructions: 290000002 cycles: 850614914 heartbeat IPC: 0.112486 cumulative IPC: 0.115072 (Simulation time: 175 hr 43 min 40 sec) 
 Total Blocks : 262144 Invalid Blocks : 0
Heartbeat CPU 2 instructions: 300000002 cycles: 936606512 heartbeat IPC: 0.111789 cumulative IPC: 0.115131 (Simulation time: 180 hr 16 min 22 sec) 
 Total Blocks : 262144 Invalid Blocks : 0
Heartbeat CPU 1 instructions: 300000002 cycles: 937289681 heartbeat IPC: 0.112566 cumulative IPC: 0.115025 (Simulation time: 180 hr 18 min 44 sec) 
 Total Blocks : 262144 Invalid Blocks : 0
Heartbeat CPU 4 instructions: 300000002 cycles: 937336576 heartbeat IPC: 0.112391 cumulative IPC: 0.115075 (Simulation time: 180 hr 18 min 55 sec) 
 Total Blocks : 262144 Invalid Blocks : 0
Heartbeat CPU 7 instructions: 300000002 cycles: 937356243 heartbeat IPC: 0.111724 cumulative IPC: 0.115127 (Simulation time: 180 hr 18 min 58 sec) 
 Total Blocks : 262144 Invalid Blocks : 0
Heartbeat CPU 3 instructions: 300000002 cycles: 937737993 heartbeat IPC: 0.11249 cumulative IPC: 0.115 (Simulation time: 180 hr 20 min 16 sec) 
 Total Blocks : 262144 Invalid Blocks : 0
Heartbeat CPU 0 instructions: 300000002 cycles: 937911624 heartbeat IPC: 0.112395 cumulative IPC: 0.114909 (Simulation time: 180 hr 20 min 49 sec) 
 Total Blocks : 262144 Invalid Blocks : 0
Heartbeat CPU 6 instructions: 300000002 cycles: 937972594 heartbeat IPC: 0.112273 cumulative IPC: 0.115028 (Simulation time: 180 hr 21 min 0 sec) 
 Total Blocks : 262144 Invalid Blocks : 0
Heartbeat CPU 5 instructions: 300000002 cycles: 940455318 heartbeat IPC: 0.111308 cumulative IPC: 0.114684 (Simulation time: 180 hr 29 min 8 sec) 
 Total Blocks : 262144 Invalid Blocks : 0
Heartbeat CPU 2 instructions: 310000002 cycles: 1026268749 heartbeat IPC: 0.11153 cumulative IPC: 0.114794 (Simulation time: 185 hr 9 min 49 sec) 
 Total Blocks : 262144 Invalid Blocks : 0
Heartbeat CPU 4 instructions: 310000000 cycles: 1026960542 heartbeat IPC: 0.111577 cumulative IPC: 0.114748 (Simulation time: 185 hr 12 min 8 sec) 
 Total Blocks : 262144 Invalid Blocks : 0
Heartbeat CPU 7 instructions: 310000000 cycles: 1027297304 heartbeat IPC: 0.111184 cumulative IPC: 0.114757 (Simulation time: 185 hr 13 min 11 sec) 
 Total Blocks : 262144 Invalid Blocks : 0
Heartbeat CPU 1 instructions: 310000000 cycles: 1027313270 heartbeat IPC: 0.111082 cumulative IPC: 0.114655 (Simulation time: 185 hr 13 min 15 sec) 
 Total Blocks : 262144 Invalid Blocks : 0
Heartbeat CPU 0 instructions: 310000000 cycles: 1027422360 heartbeat IPC: 0.111718 cumulative IPC: 0.114611 (Simulation time: 185 hr 13 min 38 sec) 
 Total Blocks : 262144 Invalid Blocks : 0
Heartbeat CPU 3 instructions: 310000000 cycles: 1027441228 heartbeat IPC: 0.111479 cumulative IPC: 0.11467 (Simulation time: 185 hr 13 min 42 sec) 
 Total Blocks : 262144 Invalid Blocks : 0
Heartbeat CPU 6 instructions: 310000000 cycles: 1027646549 heartbeat IPC: 0.111515 cumulative IPC: 0.114699 (Simulation time: 185 hr 14 min 23 sec) 
 Total Blocks : 262144 Invalid Blocks : 0
Heartbeat CPU 5 instructions: 310000000 cycles: 1030054904 heartbeat IPC: 0.111608 cumulative IPC: 0.114397 (Simulation time: 185 hr 22 min 29 sec) 
 Total Blocks : 262144 Invalid Blocks : 0
Heartbeat CPU 2 instructions: 320000000 cycles: 1116549444 heartbeat IPC: 0.110766 cumulative IPC: 0.114446 (Simulation time: 190 hr 12 min 31 sec) 
 Total Blocks : 262144 Invalid Blocks : 0
Heartbeat CPU 4 instructions: 320000000 cycles: 1116858749 heartbeat IPC: 0.111237 cumulative IPC: 0.114447 (Simulation time: 190 hr 13 min 34 sec) 
 Total Blocks : 262144 Invalid Blocks : 0
Heartbeat CPU 7 instructions: 320000000 cycles: 1117181705 heartbeat IPC: 0.111254 cumulative IPC: 0.114456 (Simulation time: 190 hr 14 min 42 sec) 
 Total Blocks : 262144 Invalid Blocks : 0
Heartbeat CPU 0 instructions: 320000000 cycles: 1117374765 heartbeat IPC: 0.11117 cumulative IPC: 0.114316 (Simulation time: 190 hr 15 min 22 sec) 
 Total Blocks : 262144 Invalid Blocks : 0
Heartbeat CPU 6 instructions: 320000000 cycles: 1117406046 heartbeat IPC: 0.111409 cumulative IPC: 0.114417 (Simulation time: 190 hr 15 min 30 sec) 
 Total Blocks : 262144 Invalid Blocks : 0
Heartbeat CPU 3 instructions: 320000000 cycles: 1117426006 heartbeat IPC: 0.11113 cumulative IPC: 0.114367 (Simulation time: 190 hr 15 min 34 sec) 
 Total Blocks : 262144 Invalid Blocks : 0
Heartbeat CPU 1 instructions: 320000000 cycles: 1117795014 heartbeat IPC: 0.11052 cumulative IPC: 0.114298 (Simulation time: 190 hr 16 min 51 sec) 
 Total Blocks : 262144 Invalid Blocks : 0
Heartbeat CPU 5 instructions: 320000000 cycles: 1120352853 heartbeat IPC: 0.110744 cumulative IPC: 0.114083 (Simulation time: 190 hr 25 min 14 sec) 
 Total Blocks : 262144 Invalid Blocks : 0
Heartbeat CPU 2 instructions: 330000000 cycles: 1206793880 heartbeat IPC: 0.11081 cumulative IPC: 0.114158 (Simulation time: 195 hr 23 min 32 sec) 
 Total Blocks : 262144 Invalid Blocks : 0
Heartbeat CPU 4 instructions: 330000000 cycles: 1206985001 heartbeat IPC: 0.110955 cumulative IPC: 0.11417 (Simulation time: 195 hr 23 min 56 sec) 
 Total Blocks : 262144 Invalid Blocks : 0
Heartbeat CPU 7 instructions: 330000000 cycles: 1207740437 heartbeat IPC: 0.110426 cumulative IPC: 0.114136 (Simulation time: 195 hr 25 min 24 sec) 
 Total Blocks : 262144 Invalid Blocks : 0
Heartbeat CPU 0 instructions: 330000000 cycles: 1208010995 heartbeat IPC: 0.110331 cumulative IPC: 0.113999 (Simulation time: 195 hr 25 min 57 sec) 
 Total Blocks : 262144 Invalid Blocks : 0
Heartbeat CPU 3 instructions: 330000000 cycles: 1208133973 heartbeat IPC: 0.110244 cumulative IPC: 0.114038 (Simulation time: 195 hr 26 min 13 sec) 
 Total Blocks : 262144 Invalid Blocks : 0
Heartbeat CPU 6 instructions: 330000000 cycles: 1208297774 heartbeat IPC: 0.110021 cumulative IPC: 0.114067 (Simulation time: 195 hr 26 min 37 sec) 
 Total Blocks : 262144 Invalid Blocks : 0
Heartbeat CPU 1 instructions: 330000000 cycles: 1208616457 heartbeat IPC: 0.110106 cumulative IPC: 0.113964 (Simulation time: 195 hr 28 min 1 sec) 
 Total Blocks : 262144 Invalid Blocks : 0
Heartbeat CPU 5 instructions: 330000000 cycles: 1210766977 heartbeat IPC: 0.110602 cumulative IPC: 0.113808 (Simulation time: 195 hr 38 min 3 sec) 
 Total Blocks : 262144 Invalid Blocks : 0
Heartbeat CPU 2 instructions: 340000000 cycles: 1296698422 heartbeat IPC: 0.111229 cumulative IPC: 0.113944 (Simulation time: 200 hr 45 min 23 sec) 
 Total Blocks : 262144 Invalid Blocks : 0
Heartbeat CPU 4 instructions: 340000000 cycles: 1296796829 heartbeat IPC: 0.111344 cumulative IPC: 0.113964 (Simulation time: 200 hr 45 min 45 sec) 
 Total Blocks : 262144 Invalid Blocks : 0
Heartbeat CPU 7 instructions: 340000000 cycles: 1297468466 heartbeat IPC: 0.111448 cumulative IPC: 0.11394 (Simulation time: 200 hr 48 min 9 sec) 
 Total Blocks : 262144 Invalid Blocks : 0
Heartbeat CPU 6 instructions: 340000000 cycles: 1297562440 heartbeat IPC: 0.112026 cumulative IPC: 0.113919 (Simulation time: 200 hr 48 min 30 sec) 
 Total Blocks : 262144 Invalid Blocks : 0
Heartbeat CPU 3 instructions: 340000000 cycles: 1297773525 heartbeat IPC: 0.111558 cumulative IPC: 0.113857 (Simulation time: 200 hr 49 min 15 sec) 
 Total Blocks : 262144 Invalid Blocks : 0
Heartbeat CPU 0 instructions: 340000000 cycles: 1297962877 heartbeat IPC: 0.111171 cumulative IPC: 0.113792 (Simulation time: 200 hr 49 min 58 sec) 
 Total Blocks : 262144 Invalid Blocks : 0
Heartbeat CPU 1 instructions: 340000000 cycles: 1297964175 heartbeat IPC: 0.111922 cumulative IPC: 0.113816 (Simulation time: 200 hr 49 min 58 sec) 
 Total Blocks : 262144 Invalid Blocks : 0
Heartbeat CPU 5 instructions: 340000000 cycles: 1300916840 heartbeat IPC: 0.110926 cumulative IPC: 0.113597 (Simulation time: 201 hr 0 min 51 sec) 
 Total Blocks : 262144 Invalid Blocks : 0
Heartbeat CPU 2 instructions: 350000000 cycles: 1387331841 heartbeat IPC: 0.110335 cumulative IPC: 0.113696 (Simulation time: 206 hr 16 min 6 sec) 
 Total Blocks : 262144 Invalid Blocks : 0
Heartbeat CPU 4 instructions: 350000000 cycles: 1387451989 heartbeat IPC: 0.110308 cumulative IPC: 0.113712 (Simulation time: 206 hr 16 min 35 sec) 
 Total Blocks : 262144 Invalid Blocks : 0
Heartbeat CPU 7 instructions: 350000003 cycles: 1388095746 heartbeat IPC: 0.110342 cumulative IPC: 0.113693 (Simulation time: 206 hr 19 min 4 sec) 
 Total Blocks : 262144 Invalid Blocks : 0
Heartbeat CPU 3 instructions: 350000000 cycles: 1388361127 heartbeat IPC: 0.11039 cumulative IPC: 0.113619 (Simulation time: 206 hr 20 min 2 sec) 
 Total Blocks : 262144 Invalid Blocks : 0
Heartbeat CPU 1 instructions: 350000003 cycles: 1388608933 heartbeat IPC: 0.110321 cumulative IPC: 0.113576 (Simulation time: 206 hr 21 min 0 sec) 
 Total Blocks : 262144 Invalid Blocks : 0
Heartbeat CPU 0 instructions: 350000000 cycles: 1388852172 heartbeat IPC: 0.110024 cumulative IPC: 0.113533 (Simulation time: 206 hr 21 min 55 sec) 
 Total Blocks : 262144 Invalid Blocks : 0
Heartbeat CPU 6 instructions: 350000000 cycles: 1389052284 heartbeat IPC: 0.109302 cumulative IPC: 0.113599 (Simulation time: 206 hr 22 min 42 sec) 
 Total Blocks : 262144 Invalid Blocks : 0
Heartbeat CPU 5 instructions: 350000000 cycles: 1391897232 heartbeat IPC: 0.109914 cumulative IPC: 0.113344 (Simulation time: 206 hr 33 min 24 sec) 
 Total Blocks : 262144 Invalid Blocks : 0
Heartbeat CPU 2 instructions: 360000001 cycles: 1477421373 heartbeat IPC: 0.111001 cumulative IPC: 0.113523 (Simulation time: 211 hr 50 min 54 sec) 
 Total Blocks : 262144 Invalid Blocks : 0
Heartbeat CPU 4 instructions: 360000001 cycles: 1477507287 heartbeat IPC: 0.111043 cumulative IPC: 0.113542 (Simulation time: 211 hr 51 min 14 sec) 
 Total Blocks : 262144 Invalid Blocks : 0
Heartbeat CPU 7 instructions: 360000003 cycles: 1478596840 heartbeat IPC: 0.110496 cumulative IPC: 0.113487 (Simulation time: 211 hr 55 min 28 sec) 
 Total Blocks : 262144 Invalid Blocks : 0
Heartbeat CPU 3 instructions: 360000003 cycles: 1478683446 heartbeat IPC: 0.110715 cumulative IPC: 0.113433 (Simulation time: 211 hr 55 min 46 sec) 
 Total Blocks : 262144 Invalid Blocks : 0
Heartbeat CPU 1 instructions: 360000003 cycles: 1478779668 heartbeat IPC: 0.110901 cumulative IPC: 0.113405 (Simulation time: 211 hr 56 min 7 sec) 
 Total Blocks : 262144 Invalid Blocks : 0
Heartbeat CPU 0 instructions: 360000003 cycles: 1479195268 heartbeat IPC: 0.110689 cumulative IPC: 0.113351 (Simulation time: 211 hr 57 min 42 sec) 
 Total Blocks : 262144 Invalid Blocks : 0
Heartbeat CPU 6 instructions: 360000003 cycles: 1479863109 heartbeat IPC: 0.110119 cumulative IPC: 0.113375 (Simulation time: 212 hr 0 min 16 sec) 
 Total Blocks : 262144 Invalid Blocks : 0
Heartbeat CPU 5 instructions: 360000003 cycles: 1482227012 heartbeat IPC: 0.110705 cumulative IPC: 0.113175 (Simulation time: 212 hr 9 min 8 sec) 
 Total Blocks : 262144 Invalid Blocks : 0
Heartbeat CPU 2 instructions: 370000000 cycles: 1567365849 heartbeat IPC: 0.11118 cumulative IPC: 0.113383 (Simulation time: 217 hr 25 min 10 sec) 
 Total Blocks : 262144 Invalid Blocks : 0
Heartbeat CPU 4 instructions: 370000003 cycles: 1567473180 heartbeat IPC: 0.111153 cumulative IPC: 0.113398 (Simulation time: 217 hr 25 min 36 sec) 
 Total Blocks : 262144 Invalid Blocks : 0
Heartbeat CPU 3 instructions: 370000003 cycles: 1568895423 heartbeat IPC: 0.11085 cumulative IPC: 0.113278 (Simulation time: 217 hr 31 min 10 sec) 
 Total Blocks : 262144 Invalid Blocks : 0
Heartbeat CPU 1 instructions: 370000000 cycles: 1568989908 heartbeat IPC: 0.110852 cumulative IPC: 0.113251 (Simulation time: 217 hr 31 min 32 sec) 
 Total Blocks : 262144 Invalid Blocks : 0
Heartbeat CPU 7 instructions: 370000003 cycles: 1569215876 heartbeat IPC: 0.110352 cumulative IPC: 0.113298 (Simulation time: 217 hr 32 min 24 sec) 
 Total Blocks : 262144 Invalid Blocks : 0
Heartbeat CPU 0 instructions: 370000003 cycles: 1569508499 heartbeat IPC: 0.110726 cumulative IPC: 0.113193 (Simulation time: 217 hr 33 min 30 sec) 
 Total Blocks : 262144 Invalid Blocks : 0
Heartbeat CPU 6 instructions: 370000003 cycles: 1570381782 heartbeat IPC: 0.110474 cumulative IPC: 0.1132 (Simulation time: 217 hr 36 min 7 sec) 
 Total Blocks : 262144 Invalid Blocks : 0
Heartbeat CPU 5 instructions: 370000000 cycles: 1573050832 heartbeat IPC: 0.110103 cumulative IPC: 0.11299 (Simulation time: 217 hr 44 min 49 sec) 
 Total Blocks : 262144 Invalid Blocks : 0
Heartbeat CPU 2 instructions: 380000003 cycles: 1657864171 heartbeat IPC: 0.110499 cumulative IPC: 0.113218 (Simulation time: 223 hr 7 min 32 sec) 
 Total Blocks : 262144 Invalid Blocks : 0
Heartbeat CPU 4 instructions: 380000003 cycles: 1658523587 heartbeat IPC: 0.109829 cumulative IPC: 0.113194 (Simulation time: 223 hr 8 min 57 sec) 
 Total Blocks : 262144 Invalid Blocks : 0
Heartbeat CPU 1 instructions: 380000003 cycles: 1659898534 heartbeat IPC: 0.110001 cumulative IPC: 0.113065 (Simulation time: 223 hr 14 min 37 sec) 
 Total Blocks : 262144 Invalid Blocks : 0
Heartbeat CPU 3 instructions: 380000000 cycles: 1659992926 heartbeat IPC: 0.109772 cumulative IPC: 0.113077 (Simulation time: 223 hr 15 min 8 sec) 
 Total Blocks : 262144 Invalid Blocks : 0
Heartbeat CPU 7 instructions: 380000003 cycles: 1660007630 heartbeat IPC: 0.110142 cumulative IPC: 0.113118 (Simulation time: 223 hr 15 min 14 sec) 
 Total Blocks : 262144 Invalid Blocks : 0
Heartbeat CPU 0 instructions: 380000000 cycles: 1660185958 heartbeat IPC: 0.110281 cumulative IPC: 0.113027 (Simulation time: 223 hr 16 min 10 sec) 
 Total Blocks : 262144 Invalid Blocks : 0
Heartbeat CPU 6 instructions: 380000003 cycles: 1660719643 heartbeat IPC: 0.110696 cumulative IPC: 0.113058 (Simulation time: 223 hr 19 min 11 sec) 
 Total Blocks : 262144 Invalid Blocks : 0
Heartbeat CPU 5 instructions: 380000003 cycles: 1662795338 heartbeat IPC: 0.111427 cumulative IPC: 0.112902 (Simulation time: 223 hr 27 min 35 sec) 
 Total Blocks : 262144 Invalid Blocks : 0
Heartbeat CPU 2 instructions: 390000000 cycles: 1747731287 heartbeat IPC: 0.111275 cumulative IPC: 0.113114 (Simulation time: 228 hr 58 min 48 sec) 
 Total Blocks : 262144 Invalid Blocks : 0
Heartbeat CPU 4 instructions: 390000002 cycles: 1748184050 heartbeat IPC: 0.111532 cumulative IPC: 0.113105 (Simulation time: 229 hr 0 min 37 sec) 
 Total Blocks : 262144 Invalid Blocks : 0
Heartbeat CPU 1 instructions: 390000000 cycles: 1749732231 heartbeat IPC: 0.111317 cumulative IPC: 0.112972 (Simulation time: 229 hr 6 min 47 sec) 
 Total Blocks : 262144 Invalid Blocks : 0
Heartbeat CPU 7 instructions: 390000002 cycles: 1749764862 heartbeat IPC: 0.111412 cumulative IPC: 0.113027 (Simulation time: 229 hr 6 min 56 sec) 
 Total Blocks : 262144 Invalid Blocks : 0
Heartbeat CPU 3 instructions: 390000002 cycles: 1749877963 heartbeat IPC: 0.111253 cumulative IPC: 0.11298 (Simulation time: 229 hr 7 min 22 sec) 
 Total Blocks : 262144 Invalid Blocks : 0
Heartbeat CPU 0 instructions: 390000002 cycles: 1750330528 heartbeat IPC: 0.110933 cumulative IPC: 0.112914 (Simulation time: 229 hr 9 min 9 sec) 
 Total Blocks : 262144 Invalid Blocks : 0
Heartbeat CPU 6 instructions: 390000002 cycles: 1750775934 heartbeat IPC: 0.111042 cumulative IPC: 0.11295 (Simulation time: 229 hr 10 min 57 sec) 
 Total Blocks : 262144 Invalid Blocks : 0
Heartbeat CPU 5 instructions: 390000000 cycles: 1753783137 heartbeat IPC: 0.109905 cumulative IPC: 0.11274 (Simulation time: 229 hr 20 min 5 sec) 
 Total Blocks : 262144 Invalid Blocks : 0
Heartbeat CPU 2 instructions: 400000001 cycles: 1838271050 heartbeat IPC: 0.110449 cumulative IPC: 0.112978 (Simulation time: 237 hr 27 min 34 sec) 
 Total Blocks : 262144 Invalid Blocks : 0
Heartbeat CPU 4 instructions: 400000001 cycles: 1838850031 heartbeat IPC: 0.110295 cumulative IPC: 0.112961 (Simulation time: 237 hr 31 min 35 sec) 
 Total Blocks : 262144 Invalid Blocks : 0
Finished CPU 2 instructions: 200000001 cycles: 1770261789 cumulative IPC: 0.112978 (Simulation time: 237 hr 32 min 42 sec) 
Finished CPU 4 instructions: 200000000 cycles: 1770525935 cumulative IPC: 0.112961 (Simulation time: 237 hr 34 min 27 sec) 
Heartbeat CPU 1 instructions: 400000000 cycles: 1840211134 heartbeat IPC: 0.110523 cumulative IPC: 0.112847 (Simulation time: 237 hr 41 min 8 sec) 
 Total Blocks : 262144 Invalid Blocks : 0
Heartbeat CPU 7 instructions: 400000000 cycles: 1840256005 heartbeat IPC: 0.110508 cumulative IPC: 0.112898 (Simulation time: 237 hr 41 min 31 sec) 
 Total Blocks : 262144 Invalid Blocks : 0
Finished CPU 7 instructions: 200000002 cycles: 1771507962 cumulative IPC: 0.112898 (Simulation time: 237 hr 41 min 31 sec) 
Heartbeat CPU 3 instructions: 400000001 cycles: 1840567316 heartbeat IPC: 0.110267 cumulative IPC: 0.112841 (Simulation time: 237 hr 43 min 45 sec) 
 Total Blocks : 262144 Invalid Blocks : 0
Finished CPU 1 instructions: 200000003 cycles: 1772329644 cumulative IPC: 0.112846 (Simulation time: 237 hr 47 min 25 sec) 
Finished CPU 3 instructions: 200000002 cycles: 1772405760 cumulative IPC: 0.112841 (Simulation time: 237 hr 48 min 0 sec) 
Heartbeat CPU 6 instructions: 400000000 cycles: 1841450026 heartbeat IPC: 0.110285 cumulative IPC: 0.112814 (Simulation time: 237 hr 49 min 57 sec) 
 Total Blocks : 262144 Invalid Blocks : 0
Heartbeat CPU 0 instructions: 400000000 cycles: 1841538547 heartbeat IPC: 0.109639 cumulative IPC: 0.112746 (Simulation time: 237 hr 50 min 34 sec) 
 Total Blocks : 262144 Invalid Blocks : 0
Finished CPU 6 instructions: 200000001 cycles: 1772842487 cumulative IPC: 0.112813 (Simulation time: 237 hr 50 min 54 sec) 
Finished CPU 0 instructions: 200000001 cycles: 1774259475 cumulative IPC: 0.112723 (Simulation time: 237 hr 57 min 51 sec) 
Heartbeat CPU 5 instructions: 400000001 cycles: 1844624949 heartbeat IPC: 0.110081 cumulative IPC: 0.112604 (Simulation time: 238 hr 3 min 49 sec) 
 Total Blocks : 262144 Invalid Blocks : 0
Finished CPU 5 instructions: 200000001 cycles: 1776076034 cumulative IPC: 0.112608 (Simulation time: 238 hr 5 min 9 sec) 

CPU 0 Branch Prediction Accuracy: 99.9619% MPKI: 0.0424004 Average ROB Occupancy at Mispredict: 187.651

CPU 1 Branch Prediction Accuracy: 99.9619% MPKI: 0.0423903 Average ROB Occupancy at Mispredict: 187.76

CPU 2 Branch Prediction Accuracy: 99.962% MPKI: 0.0423802 Average ROB Occupancy at Mispredict: 187.74

CPU 3 Branch Prediction Accuracy: 99.9619% MPKI: 0.0423985 Average ROB Occupancy at Mispredict: 187.851

CPU 4 Branch Prediction Accuracy: 99.9619% MPKI: 0.0424157 Average ROB Occupancy at Mispredict: 187.725

CPU 5 Branch Prediction Accuracy: 99.9619% MPKI: 0.0424288 Average ROB Occupancy at Mispredict: 187.83

CPU 6 Branch Prediction Accuracy: 99.9619% MPKI: 0.0424193 Average ROB Occupancy at Mispredict: 187.625

CPU 7 Branch Prediction Accuracy: 99.9619% MPKI: 0.0424111 Average ROB Occupancy at Mispredict: 187.76

ChampSim completed all CPUs

Total Simulation Statistics (not including warmup)

CPU 0 cumulative IPC: 0.112682 instructions: 200132496 cycles: 1776076034
ITLB TOTAL     ACCESS: 46291851  HIT: 46291851  MISS:     0  HIT %:   100  MISS %:     0  AVERAGE MISS PENALTY: 0
ITLB LOAD      ACCESS: 46291851  HIT: 46291851  MISS:     0  HIT %:   100  MISS %:     0  AVERAGE MISS PENALTY: 0
ITLB RFO       ACCESS:     0  HIT:     0  MISS:     0  HIT %:     0  MISS %:     0  AVERAGE MISS PENALTY: 0
ITLB PREFETCH  ACCESS:     0  HIT:     0  MISS:     0  HIT %:     0  MISS %:     0  AVERAGE MISS PENALTY: 0
ITLB WRITEBACK ACCESS:     0  HIT:     0  MISS:     0  HIT %:     0  MISS %:     0  AVERAGE MISS PENALTY: 0

DTLB TOTAL     ACCESS: 36804517  HIT: 32036357  MISS: 4768160  HIT %: 87.0446  MISS %: 12.9554  AVERAGE MISS PENALTY: 153.688
DTLB LOAD      ACCESS: 27929868  HIT: 23170378  MISS: 4759490  HIT %: 82.9591  MISS %: 17.0409  AVERAGE MISS PENALTY: 153.709
DTLB RFO       ACCESS: 8874649  HIT: 8865979  MISS:  8670  HIT %: 99.9023  MISS %: 0.097694  AVERAGE MISS PENALTY: 141.822
DTLB PREFETCH  ACCESS:     0  HIT:     0  MISS:     0  HIT %:     0  MISS %:     0  AVERAGE MISS PENALTY: 0
DTLB WRITEBACK ACCESS:     0  HIT:     0  MISS:     0  HIT %:     0  MISS %:     0  AVERAGE MISS PENALTY: 0

STLB TOTAL     ACCESS: 4768160  HIT:    62  MISS: 4768098  HIT %: 0.00130029  MISS %: 99.9987  AVERAGE MISS PENALTY: 100
STLB LOAD      ACCESS: 4759490  HIT:    62  MISS: 4759428  HIT %: 0.00130266  MISS %: 99.9987  AVERAGE MISS PENALTY: 100
STLB RFO       ACCESS:  8670  HIT:     0  MISS:  8670  HIT %:     0  MISS %:   100  AVERAGE MISS PENALTY: 100
STLB PREFETCH  ACCESS:     0  HIT:     0  MISS:     0  HIT %:     0  MISS %:     0  AVERAGE MISS PENALTY: 0
STLB WRITEBACK ACCESS:     0  HIT:     0  MISS:     0  HIT %:     0  MISS %:     0  AVERAGE MISS PENALTY: 0

L1D TOTAL     ACCESS: 40991380  HIT: 27941820  MISS: 13049560  HIT %: 68.1651  MISS %: 31.8349  AVERAGE MISS PENALTY: 940931
L1D LOAD      ACCESS: 29872487  HIT: 19474019  MISS: 10398468  HIT %: 65.1905  MISS %: 34.8095  AVERAGE MISS PENALTY: 1.17757e+06
L1D RFO       ACCESS: 8874752  HIT: 8321100  MISS: 553652  HIT %: 93.7615  MISS %: 6.23851  AVERAGE MISS PENALTY: 59236.4
L1D PREFETCH  ACCESS: 2244141  HIT: 146701  MISS: 2097440  HIT %: 6.53707  MISS %: 93.4629  AVERAGE MISS PENALTY: 466.377
L1D WRITEBACK ACCESS:     0  HIT:     0  MISS:     0  HIT %:     0  MISS %:     0  AVERAGE MISS PENALTY: 0

L1I TOTAL     ACCESS: 55444815  HIT: 55444815  MISS:     0  HIT %:   100  MISS %:     0  AVERAGE MISS PENALTY: 0
L1I LOAD      ACCESS: 55444815  HIT: 55444815  MISS:     0  HIT %:   100  MISS %:     0  AVERAGE MISS PENALTY: 0
L1I RFO       ACCESS:     0  HIT:     0  MISS:     0  HIT %:     0  MISS %:     0  AVERAGE MISS PENALTY: 0
L1I PREFETCH  ACCESS:     0  HIT:     0  MISS:     0  HIT %:     0  MISS %:     0  AVERAGE MISS PENALTY: 0
L1I WRITEBACK ACCESS:     0  HIT:     0  MISS:     0  HIT %:     0  MISS %:     0  AVERAGE MISS PENALTY: 0

L2C TOTAL     ACCESS: 18491653  HIT: 6778558  MISS: 11713095  HIT %: 36.6574  MISS %: 63.3426  AVERAGE MISS PENALTY: 1.37709e+06
L2C LOAD      ACCESS: 10397406  HIT: 1856613  MISS: 8540793  HIT %: 17.8565  MISS %: 82.1435  AVERAGE MISS PENALTY: 1.88839e+06
L2C RFO       ACCESS: 553621  HIT: 259489  MISS: 294132  HIT %: 46.8712  MISS %: 53.1288  AVERAGE MISS PENALTY: 106.758
L2C PREFETCH  ACCESS: 3103295  HIT: 225125  MISS: 2878170  HIT %: 7.25439  MISS %: 92.7456  AVERAGE MISS PENALTY: 549.862
L2C WRITEBACK ACCESS: 4437331  HIT: 4437331  MISS:     0  HIT %:   100  MISS %:     0  AVERAGE MISS PENALTY: 0


LLC0 TOTAL     ACCESS: 2049120  HIT: 994854  MISS: 1054266  HIT %: 48.5503  MISS %: 51.4497  AVERAGE MISS PENALTY: 408.346
LLC0 LOAD      ACCESS: 1075524  HIT: 406890  MISS: 668634  HIT %: 37.8318  MISS %: 62.1682  AVERAGE MISS PENALTY: 388.143
LLC0 RFO       ACCESS: 37890  HIT: 33636  MISS:  4254  HIT %: 88.7728  MISS %: 11.2272  AVERAGE MISS PENALTY: 440.314
LLC0 PREFETCH  ACCESS: 380906  HIT: 64472  MISS: 316434  HIT %: 16.926  MISS %: 83.074  AVERAGE MISS PENALTY: 534.414
LLC0 WRITEBACK ACCESS: 554800  HIT: 489856  MISS: 64944  HIT %: 88.2942  MISS %: 11.7058  AVERAGE MISS PENALTY: 0

LLC1 TOTAL     ACCESS: 2064504  HIT: 1003808  MISS: 1060696  HIT %: 48.6222  MISS %: 51.3778  AVERAGE MISS PENALTY: 409.147
LLC1 LOAD      ACCESS: 1080495  HIT: 413659  MISS: 666836  HIT %: 38.2842  MISS %: 61.7158  AVERAGE MISS PENALTY: 383.763
LLC1 RFO       ACCESS: 38413  HIT: 34065  MISS:  4348  HIT %: 88.6809  MISS %: 11.3191  AVERAGE MISS PENALTY: 429.32
LLC1 PREFETCH  ACCESS: 390774  HIT: 64545  MISS: 326229  HIT %: 16.5172  MISS %: 83.4828  AVERAGE MISS PENALTY: 540.133
LLC1 WRITEBACK ACCESS: 554822  HIT: 491539  MISS: 63283  HIT %: 88.594  MISS %: 11.406  AVERAGE MISS PENALTY: 0

LLC2 TOTAL     ACCESS: 2103936  HIT: 1039384  MISS: 1064552  HIT %: 49.4019  MISS %: 50.5981  AVERAGE MISS PENALTY: 417.404
LLC2 LOAD      ACCESS: 1112269  HIT: 444673  MISS: 667596  HIT %: 39.9789  MISS %: 60.0211  AVERAGE MISS PENALTY: 394.248
LLC2 RFO       ACCESS: 39626  HIT: 35140  MISS:  4486  HIT %: 88.6792  MISS %: 11.3208  AVERAGE MISS PENALTY: 444.761
LLC2 PREFETCH  ACCESS: 397223  HIT: 66320  MISS: 330903  HIT %: 16.6959  MISS %: 83.3041  AVERAGE MISS PENALTY: 541.412
LLC2 WRITEBACK ACCESS: 554818  HIT: 493251  MISS: 61567  HIT %: 88.9032  MISS %: 11.0968  AVERAGE MISS PENALTY: 0

LLC3 TOTAL     ACCESS: 1978056  HIT: 975831  MISS: 1002225  HIT %: 49.3328  MISS %: 50.6672  AVERAGE MISS PENALTY: 482.438
LLC3 LOAD      ACCESS: 1044433  HIT: 390680  MISS: 653753  HIT %: 37.4059  MISS %: 62.5941  AVERAGE MISS PENALTY: 386.303
LLC3 RFO       ACCESS: 35511  HIT: 31909  MISS:  3602  HIT %: 89.8567  MISS %: 10.1433  AVERAGE MISS PENALTY: 454.682
LLC3 PREFETCH  ACCESS: 343275  HIT: 62944  MISS: 280331  HIT %: 18.3363  MISS %: 81.6637  AVERAGE MISS PENALTY: 818.057
LLC3 WRITEBACK ACCESS: 554837  HIT: 490298  MISS: 64539  HIT %: 88.3679  MISS %: 11.6321  AVERAGE MISS PENALTY: 0

LLC4 TOTAL     ACCESS: 1982914  HIT: 975706  MISS: 1007208  HIT %: 49.2057  MISS %: 50.7943  AVERAGE MISS PENALTY: 407.208
LLC4 LOAD      ACCESS: 1047961  HIT: 392745  MISS: 655216  HIT %: 37.4771  MISS %: 62.5229  AVERAGE MISS PENALTY: 380.243
LLC4 RFO       ACCESS: 35248  HIT: 31722  MISS:  3526  HIT %: 89.9966  MISS %: 10.0034  AVERAGE MISS PENALTY: 438.737
LLC4 PREFETCH  ACCESS: 344869  HIT: 60840  MISS: 284029  HIT %: 17.6415  MISS %: 82.3585  AVERAGE MISS PENALTY: 561.404
LLC4 WRITEBACK ACCESS: 554836  HIT: 490399  MISS: 64437  HIT %: 88.3863  MISS %: 11.6137  AVERAGE MISS PENALTY: 0

LLC5 TOTAL     ACCESS: 1983913  HIT: 973456  MISS: 1010457  HIT %: 49.0675  MISS %: 50.9325  AVERAGE MISS PENALTY: 407.921
LLC5 LOAD      ACCESS: 1043451  HIT: 389278  MISS: 654173  HIT %: 37.3068  MISS %: 62.6932  AVERAGE MISS PENALTY: 380.432
LLC5 RFO       ACCESS: 35738  HIT: 32068  MISS:  3670  HIT %: 89.7308  MISS %: 10.2692  AVERAGE MISS PENALTY: 438.568
LLC5 PREFETCH  ACCESS: 349880  HIT: 61021  MISS: 288859  HIT %: 17.4406  MISS %: 82.5594  AVERAGE MISS PENALTY: 559.819
LLC5 WRITEBACK ACCESS: 554844  HIT: 491089  MISS: 63755  HIT %: 88.5094  MISS %: 11.4906  AVERAGE MISS PENALTY: 0

LLC6 TOTAL     ACCESS: 1983250  HIT: 973590  MISS: 1009660  HIT %: 49.0906  MISS %: 50.9094  AVERAGE MISS PENALTY: 478.357
LLC6 LOAD      ACCESS: 1048051  HIT: 394682  MISS: 653369  HIT %: 37.6587  MISS %: 62.3413  AVERAGE MISS PENALTY: 385.489
LLC6 RFO       ACCESS: 35589  HIT: 31977  MISS:  3612  HIT %: 89.8508  MISS %: 10.1492  AVERAGE MISS PENALTY: 451.692
LLC6 PREFETCH  ACCESS: 344746  HIT: 57483  MISS: 287263  HIT %: 16.674  MISS %: 83.326  AVERAGE MISS PENALTY: 798.849
LLC6 WRITEBACK ACCESS: 554864  HIT: 489448  MISS: 65416  HIT %: 88.2104  MISS %: 11.7896  AVERAGE MISS PENALTY: 0

LLC7 TOTAL     ACCESS: 2006082  HIT: 998249  MISS: 1007833  HIT %: 49.7611  MISS %: 50.2389  AVERAGE MISS PENALTY: 410.596
LLC7 LOAD      ACCESS: 1077827  HIT: 417181  MISS: 660646  HIT %: 38.7057  MISS %: 61.2943  AVERAGE MISS PENALTY: 385.265
LLC7 RFO       ACCESS: 36117  HIT: 32223  MISS:  3894  HIT %: 89.2184  MISS %: 10.7816  AVERAGE MISS PENALTY: 433.747
LLC7 PREFETCH  ACCESS: 337278  HIT: 59128  MISS: 278150  HIT %: 17.5309  MISS %: 82.4691  AVERAGE MISS PENALTY: 566.598
LLC7 WRITEBACK ACCESS: 554860  HIT: 489717  MISS: 65143  HIT %: 88.2596  MISS %: 11.7404  AVERAGE MISS PENALTY: 0

Total Rob stall cycles : 	1711369911
Total Load Rob Stall cycles : 	1521101411
Average Rob Stall cycles : 	 69
Average Load Rob Stall cycles : 	 210

CPU 1 cumulative IPC: 0.112779 instructions: 200303779 cycles: 1776076034
ITLB TOTAL     ACCESS: 46330799  HIT: 46330799  MISS:     0  HIT %:   100  MISS %:     0  AVERAGE MISS PENALTY: 0
ITLB LOAD      ACCESS: 46330799  HIT: 46330799  MISS:     0  HIT %:   100  MISS %:     0  AVERAGE MISS PENALTY: 0
ITLB RFO       ACCESS:     0  HIT:     0  MISS:     0  HIT %:     0  MISS %:     0  AVERAGE MISS PENALTY: 0
ITLB PREFETCH  ACCESS:     0  HIT:     0  MISS:     0  HIT %:     0  MISS %:     0  AVERAGE MISS PENALTY: 0
ITLB WRITEBACK ACCESS:     0  HIT:     0  MISS:     0  HIT %:     0  MISS %:     0  AVERAGE MISS PENALTY: 0

DTLB TOTAL     ACCESS: 36834877  HIT: 32062598  MISS: 4772279  HIT %: 87.0441  MISS %: 12.9559  AVERAGE MISS PENALTY: 153.702
DTLB LOAD      ACCESS: 27952637  HIT: 23189036  MISS: 4763601  HIT %: 82.9583  MISS %: 17.0417  AVERAGE MISS PENALTY: 153.725
DTLB RFO       ACCESS: 8882240  HIT: 8873562  MISS:  8678  HIT %: 99.9023  MISS %: 0.0977006  AVERAGE MISS PENALTY: 141.464
DTLB PREFETCH  ACCESS:     0  HIT:     0  MISS:     0  HIT %:     0  MISS %:     0  AVERAGE MISS PENALTY: 0
DTLB WRITEBACK ACCESS:     0  HIT:     0  MISS:     0  HIT %:     0  MISS %:     0  AVERAGE MISS PENALTY: 0

STLB TOTAL     ACCESS: 4772279  HIT:    61  MISS: 4772218  HIT %: 0.00127822  MISS %: 99.9987  AVERAGE MISS PENALTY: 100
STLB LOAD      ACCESS: 4763601  HIT:    61  MISS: 4763540  HIT %: 0.00128054  MISS %: 99.9987  AVERAGE MISS PENALTY: 100
STLB RFO       ACCESS:  8678  HIT:     0  MISS:  8678  HIT %:     0  MISS %:   100  AVERAGE MISS PENALTY: 100
STLB PREFETCH  ACCESS:     0  HIT:     0  MISS:     0  HIT %:     0  MISS %:     0  AVERAGE MISS PENALTY: 0
STLB WRITEBACK ACCESS:     0  HIT:     0  MISS:     0  HIT %:     0  MISS %:     0  AVERAGE MISS PENALTY: 0

L1D TOTAL     ACCESS: 41027533  HIT: 27968150  MISS: 13059383  HIT %: 68.1692  MISS %: 31.8308  AVERAGE MISS PENALTY: 942851
L1D LOAD      ACCESS: 29897903  HIT: 19491055  MISS: 10406848  HIT %: 65.192  MISS %: 34.808  AVERAGE MISS PENALTY: 1.18041e+06
L1D RFO       ACCESS: 8882352  HIT: 8328094  MISS: 554258  HIT %: 93.76  MISS %: 6.23999  AVERAGE MISS PENALTY: 50043.1
L1D PREFETCH  ACCESS: 2247278  HIT: 149001  MISS: 2098277  HIT %: 6.63029  MISS %: 93.3697  AVERAGE MISS PENALTY: 465.044
L1D WRITEBACK ACCESS:     0  HIT:     0  MISS:     0  HIT %:     0  MISS %:     0  AVERAGE MISS PENALTY: 0

L1I TOTAL     ACCESS: 55492152  HIT: 55492152  MISS:     0  HIT %:   100  MISS %:     0  AVERAGE MISS PENALTY: 0
L1I LOAD      ACCESS: 55492152  HIT: 55492152  MISS:     0  HIT %:   100  MISS %:     0  AVERAGE MISS PENALTY: 0
L1I RFO       ACCESS:     0  HIT:     0  MISS:     0  HIT %:     0  MISS %:     0  AVERAGE MISS PENALTY: 0
L1I PREFETCH  ACCESS:     0  HIT:     0  MISS:     0  HIT %:     0  MISS %:     0  AVERAGE MISS PENALTY: 0
L1I WRITEBACK ACCESS:     0  HIT:     0  MISS:     0  HIT %:     0  MISS %:     0  AVERAGE MISS PENALTY: 0

L2C TOTAL     ACCESS: 18506105  HIT: 6764676  MISS: 11741429  HIT %: 36.5538  MISS %: 63.4462  AVERAGE MISS PENALTY: 1.41429e+06
L2C LOAD      ACCESS: 10405839  HIT: 1833537  MISS: 8572302  HIT %: 17.6203  MISS %: 82.3797  AVERAGE MISS PENALTY: 1.93698e+06
L2C RFO       ACCESS: 554235  HIT: 260868  MISS: 293367  HIT %: 47.0681  MISS %: 52.9319  AVERAGE MISS PENALTY: 106.48
L2C PREFETCH  ACCESS: 3104889  HIT: 229130  MISS: 2875759  HIT %: 7.37965  MISS %: 92.6203  AVERAGE MISS PENALTY: 500.541
L2C WRITEBACK ACCESS: 4441142  HIT: 4441141  MISS:     1  HIT %:   100  MISS %: 2.25167e-05  AVERAGE MISS PENALTY: 0


LLC0 TOTAL     ACCESS: 2052074  HIT: 999773  MISS: 1052301  HIT %: 48.7201  MISS %: 51.2799  AVERAGE MISS PENALTY: 408.434
LLC0 LOAD      ACCESS: 1078862  HIT: 409833  MISS: 669029  HIT %: 37.9875  MISS %: 62.0125  AVERAGE MISS PENALTY: 388.438
LLC0 RFO       ACCESS: 37829  HIT: 33649  MISS:  4180  HIT %: 88.9503  MISS %: 11.0497  AVERAGE MISS PENALTY: 426.822
LLC0 PREFETCH  ACCESS: 380103  HIT: 64849  MISS: 315254  HIT %: 17.0609  MISS %: 82.9391  AVERAGE MISS PENALTY: 533.332
LLC0 WRITEBACK ACCESS: 555280  HIT: 491442  MISS: 63838  HIT %: 88.5035  MISS %: 11.4965  AVERAGE MISS PENALTY: 0

LLC1 TOTAL     ACCESS: 2067773  HIT: 1008265  MISS: 1059508  HIT %: 48.7609  MISS %: 51.2391  AVERAGE MISS PENALTY: 409.051
LLC1 LOAD      ACCESS: 1083086  HIT: 416635  MISS: 666451  HIT %: 38.4674  MISS %: 61.5326  AVERAGE MISS PENALTY: 383.746
LLC1 RFO       ACCESS: 38178  HIT: 33831  MISS:  4347  HIT %: 88.6139  MISS %: 11.3861  AVERAGE MISS PENALTY: 432.536
LLC1 PREFETCH  ACCESS: 391216  HIT: 65300  MISS: 325916  HIT %: 16.6915  MISS %: 83.3085  AVERAGE MISS PENALTY: 539.295
LLC1 WRITEBACK ACCESS: 555293  HIT: 492499  MISS: 62794  HIT %: 88.6917  MISS %: 11.3083  AVERAGE MISS PENALTY: 0

LLC2 TOTAL     ACCESS: 2104855  HIT: 1042019  MISS: 1062836  HIT %: 49.5055  MISS %: 50.4945  AVERAGE MISS PENALTY: 417.287
LLC2 LOAD      ACCESS: 1112766  HIT: 445600  MISS: 667166  HIT %: 40.0444  MISS %: 59.9556  AVERAGE MISS PENALTY: 393.485
LLC2 RFO       ACCESS: 39283  HIT: 34904  MISS:  4379  HIT %: 88.8527  MISS %: 11.1473  AVERAGE MISS PENALTY: 441.295
LLC2 PREFETCH  ACCESS: 397506  HIT: 67398  MISS: 330108  HIT %: 16.9552  MISS %: 83.0448  AVERAGE MISS PENALTY: 542.416
LLC2 WRITEBACK ACCESS: 555300  HIT: 494117  MISS: 61183  HIT %: 88.982  MISS %: 11.018  AVERAGE MISS PENALTY: 0

LLC3 TOTAL     ACCESS: 1982080  HIT: 981109  MISS: 1000971  HIT %: 49.499  MISS %: 50.501  AVERAGE MISS PENALTY: 412.835
[...]
LLC2 TOTAL     ACCESS: 2093651  HIT: 1032067  MISS: 1061584  HIT %: 49.2951  MISS %: 50.7049  AVERAGE MISS PENALTY: 417.357
LLC2 LOAD      ACCESS: 1103724  HIT: 436522  MISS: 667202  HIT %: 39.5499  MISS %: 60.4501  AVERAGE MISS PENALTY: 394.069
LLC2 RFO       ACCESS: 39523  HIT: 35125  MISS:  4398  HIT %: 88.8723  MISS %: 11.1277  AVERAGE MISS PENALTY: 450.279
LLC2 PREFETCH  ACCESS: 396108  HIT: 66400  MISS: 329708  HIT %: 16.7631  MISS %: 83.2369  AVERAGE MISS PENALTY: 540.343
LLC2 WRITEBACK ACCESS: 554296  HIT: 494020  MISS: 60276  HIT %: 89.1257  MISS %: 10.8743  AVERAGE MISS PENALTY: 0
LLC2 PREFETCH  REQUESTED:     0  ISSUED:     0  USEFUL: 473385  USELESS: 2168814
 USEFUL LOAD PREFETCHES:     473385 PREFETCH ISSUED TO LOWER LEVEL:    2644217  ACCURACY: 17.9027
 TIMELY PREFETCHES:     473385 LATE PREFETCHES: 0 DROPPED PREFETCHES: 0
LLC2 AVERAGE MISS LATENCY: 417.357 cycles
LLC3 TOTAL     ACCESS: 1969117  HIT: 971298  MISS: 997819  HIT %: 49.3266  MISS %: 50.6734  AVERAGE MISS PENALTY: 413.255
LLC3 LOAD      ACCESS: 1038305  HIT: 386299  MISS: 652006  HIT %: 37.2048  MISS %: 62.7952  AVERAGE MISS PENALTY: 386.141
LLC3 RFO       ACCESS: 35367  HIT: 31713  MISS:  3654  HIT %: 89.6683  MISS %: 10.3317  AVERAGE MISS PENALTY: 470.158
LLC3 PREFETCH  ACCESS: 341106  HIT: 62873  MISS: 278233  HIT %: 18.4321  MISS %: 81.5679  AVERAGE MISS PENALTY: 570.996
LLC3 WRITEBACK ACCESS: 554339  HIT: 490413  MISS: 63926  HIT %: 88.4681  MISS %: 11.5319  AVERAGE MISS PENALTY: 0
LLC3 PREFETCH  REQUESTED:     0  ISSUED:     0  USEFUL: 466303  USELESS: 1766436
 USEFUL LOAD PREFETCHES:     466303 PREFETCH ISSUED TO LOWER LEVEL:    2235519  ACCURACY: 20.8588
 TIMELY PREFETCHES:     466303 LATE PREFETCHES: 0 DROPPED PREFETCHES: 0
LLC3 AVERAGE MISS LATENCY: 413.255 cycles
LLC4 TOTAL     ACCESS: 1974259  HIT: 971126  MISS: 1003133  HIT %: 49.1894  MISS %: 50.8106  AVERAGE MISS PENALTY: 406.149
LLC4 LOAD      ACCESS: 1040885  HIT: 387984  MISS: 652901  HIT %: 37.2744  MISS %: 62.7256  AVERAGE MISS PENALTY: 379.533
LLC4 RFO       ACCESS: 35281  HIT: 31703  MISS:  3578  HIT %: 89.8586  MISS %: 10.1414  AVERAGE MISS PENALTY: 444.784
LLC4 PREFETCH  ACCESS: 343764  HIT: 61245  MISS: 282519  HIT %: 17.816  MISS %: 82.184  AVERAGE MISS PENALTY: 559.37
LLC4 WRITEBACK ACCESS: 554329  HIT: 490194  MISS: 64135  HIT %: 88.4302  MISS %: 11.5698  AVERAGE MISS PENALTY: 0
LLC4 PREFETCH  REQUESTED:     0  ISSUED:     0  USEFUL: 465423  USELESS: 1799069
 USEFUL LOAD PREFETCHES:     465423 PREFETCH ISSUED TO LOWER LEVEL:    2267112  ACCURACY: 20.5293
 TIMELY PREFETCHES:     465423 LATE PREFETCHES: 0 DROPPED PREFETCHES: 0
LLC4 AVERAGE MISS LATENCY: 406.149 cycles
LLC5 TOTAL     ACCESS: 1985064  HIT: 978078  MISS: 1006986  HIT %: 49.2719  MISS %: 50.7281  AVERAGE MISS PENALTY: 407.573
LLC5 LOAD      ACCESS: 1045779  HIT: 393641  MISS: 652138  HIT %: 37.6409  MISS %: 62.3591  AVERAGE MISS PENALTY: 380.351
LLC5 RFO       ACCESS: 36065  HIT: 32378  MISS:  3687  HIT %: 89.7768  MISS %: 10.2232  AVERAGE MISS PENALTY: 440.807
LLC5 PREFETCH  ACCESS: 348912  HIT: 61055  MISS: 287857  HIT %: 17.4987  MISS %: 82.5013  AVERAGE MISS PENALTY: 558.449
LLC5 WRITEBACK ACCESS: 554308  HIT: 491004  MISS: 63304  HIT %: 88.5796  MISS %: 11.4204  AVERAGE MISS PENALTY: 0
LLC5 PREFETCH  REQUESTED:     0  ISSUED:     0  USEFUL: 466779  USELESS: 1843136
 USEFUL LOAD PREFETCHES:     466779 PREFETCH ISSUED TO LOWER LEVEL:    2312915  ACCURACY: 20.1814
 TIMELY PREFETCHES:     466779 LATE PREFETCHES: 0 DROPPED PREFETCHES: 0
LLC5 AVERAGE MISS LATENCY: 407.573 cycles
LLC6 TOTAL     ACCESS: 1978658  HIT: 972897  MISS: 1005761  HIT %: 49.1695  MISS %: 50.8305  AVERAGE MISS PENALTY: 410.376
LLC6 LOAD      ACCESS: 1044392  HIT: 392654  MISS: 651738  HIT %: 37.5964  MISS %: 62.4036  AVERAGE MISS PENALTY: 385.267
LLC6 RFO       ACCESS: 35555  HIT: 31999  MISS:  3556  HIT %: 89.9986  MISS %: 10.0014  AVERAGE MISS PENALTY: 446.005
LLC6 PREFETCH  ACCESS: 344367  HIT: 57970  MISS: 286397  HIT %: 16.8338  MISS %: 83.1662  AVERAGE MISS PENALTY: 558.88
LLC6 WRITEBACK ACCESS: 554344  HIT: 490274  MISS: 64070  HIT %: 88.4422  MISS %: 11.5578  AVERAGE MISS PENALTY: 0
LLC6 PREFETCH  REQUESTED:     0  ISSUED:     0  USEFUL: 462650  USELESS: 1828969
 USEFUL LOAD PREFETCHES:     462650 PREFETCH ISSUED TO LOWER LEVEL:    2294553  ACCURACY: 20.163
 TIMELY PREFETCHES:     462650 LATE PREFETCHES: 0 DROPPED PREFETCHES: 0
LLC6 AVERAGE MISS LATENCY: 410.376 cycles
LLC7 TOTAL     ACCESS: 1995014  HIT: 990988  MISS: 1004026  HIT %: 49.6732  MISS %: 50.3268  AVERAGE MISS PENALTY: 409.771
LLC7 LOAD      ACCESS: 1068058  HIT: 409140  MISS: 658918  HIT %: 38.3069  MISS %: 61.6931  AVERAGE MISS PENALTY: 384.838
LLC7 RFO       ACCESS: 36256  HIT: 32591  MISS:  3665  HIT %: 89.8913  MISS %: 10.1087  AVERAGE MISS PENALTY: 442.206
LLC7 PREFETCH  ACCESS: 336384  HIT: 59296  MISS: 277088  HIT %: 17.6275  MISS %: 82.3725  AVERAGE MISS PENALTY: 563.804
LLC7 WRITEBACK ACCESS: 554316  HIT: 489961  MISS: 64355  HIT %: 88.3902  MISS %: 11.6098  AVERAGE MISS PENALTY: 0
LLC7 PREFETCH  REQUESTED:     0  ISSUED:     0  USEFUL: 460412  USELESS: 1758828
 USEFUL LOAD PREFETCHES:     460412 PREFETCH ISSUED TO LOWER LEVEL:    2222002  ACCURACY: 20.7206
 TIMELY PREFETCHES:     460412 LATE PREFETCHES: 0 DROPPED PREFETCHES: 0
LLC7 AVERAGE MISS LATENCY: 409.771 cycles
ROI Average ROB Stall Cycles:	69.888
ROI Total ROB Stalls Cycles:	1708200308
ROI TOTAL ROB counter      :	24441957
ROI Average Load ROB Stall Cycles:	210.278
ROI Total Load ROB Stalls Cycle  :	1517849337
ROI Total Load ROB stalls Counter:	7218290
Major fault: 0 Minor fault: 159405

CPU 7 cumulative IPC: 0.112898 instructions: 200000002 cycles: 1771507962
ITLB TOTAL     ACCESS: 46255548  HIT: 46255548  MISS:     0  HIT %:   100  MISS %:     0  AVERAGE MISS PENALTY: 0
ITLB LOAD      ACCESS: 46255548  HIT: 46255548  MISS:     0  HIT %:   100  MISS %:     0  AVERAGE MISS PENALTY: 0
ITLB RFO       ACCESS:     0  HIT:     0  MISS:     0  HIT %:     0  MISS %:     0  AVERAGE MISS PENALTY: 0
ITLB PREFETCH  ACCESS:     0  HIT:     0  MISS:     0  HIT %:     0  MISS %:     0  AVERAGE MISS PENALTY: 0
ITLB WRITEBACK ACCESS:     0  HIT:     0  MISS:     0  HIT %:     0  MISS %:     0  AVERAGE MISS PENALTY: 0
ITLB PREFETCH  REQUESTED:     0  ISSUED:     0  USEFUL:     0  USELESS:     0
 USEFUL LOAD PREFETCHES:          0 PREFETCH ISSUED TO LOWER LEVEL:          0  ACCURACY: -nan
 TIMELY PREFETCHES:          0 LATE PREFETCHES: 0 DROPPED PREFETCHES: 0
ITLB AVERAGE MISS LATENCY: -nan cycles
DTLB TOTAL     ACCESS: 36775400  HIT: 32010275  MISS: 4765125  HIT %: 87.0426  MISS %: 12.9574  AVERAGE MISS PENALTY: 153.687
DTLB LOAD      ACCESS: 27906627  HIT: 23150166  MISS: 4756461  HIT %: 82.9558  MISS %: 17.0442  AVERAGE MISS PENALTY: 153.709
DTLB RFO       ACCESS: 8868773  HIT: 8860109  MISS:  8664  HIT %: 99.9023  MISS %: 0.0976911  AVERAGE MISS PENALTY: 141.671
DTLB PREFETCH  ACCESS:     0  HIT:     0  MISS:     0  HIT %:     0  MISS %:     0  AVERAGE MISS PENALTY: 0
DTLB WRITEBACK ACCESS:     0  HIT:     0  MISS:     0  HIT %:     0  MISS %:     0  AVERAGE MISS PENALTY: 0
DTLB PREFETCH  REQUESTED:     0  ISSUED:     0  USEFUL:     0  USELESS:     0
 USEFUL LOAD PREFETCHES:          0 PREFETCH ISSUED TO LOWER LEVEL:          0  ACCURACY: -nan
 TIMELY PREFETCHES:          0 LATE PREFETCHES: 0 DROPPED PREFETCHES: 0
DTLB AVERAGE MISS LATENCY: 153.687 cycles
STLB TOTAL     ACCESS: 4765125  HIT:    59  MISS: 4765066  HIT %: 0.00123816  MISS %: 99.9988  AVERAGE MISS PENALTY: 100
STLB LOAD      ACCESS: 4756461  HIT:    59  MISS: 4756402  HIT %: 0.00124042  MISS %: 99.9988  AVERAGE MISS PENALTY: 100
STLB RFO       ACCESS:  8664  HIT:     0  MISS:  8664  HIT %:     0  MISS %:   100  AVERAGE MISS PENALTY: 100
STLB PREFETCH  ACCESS:     0  HIT:     0  MISS:     0  HIT %:     0  MISS %:     0  AVERAGE MISS PENALTY: 0
STLB WRITEBACK ACCESS:     0  HIT:     0  MISS:     0  HIT %:     0  MISS %:     0  AVERAGE MISS PENALTY: 0
STLB PREFETCH  REQUESTED:     0  ISSUED:     0  USEFUL:     0  USELESS:     0
 USEFUL LOAD PREFETCHES:          0 PREFETCH ISSUED TO LOWER LEVEL:          0  ACCURACY: -nan
 TIMELY PREFETCHES:          0 LATE PREFETCHES: 0 DROPPED PREFETCHES: 0
STLB AVERAGE MISS LATENCY: 100 cycles
L1D TOTAL     ACCESS: 40957323  HIT: 27921179  MISS: 13036144  HIT %: 68.1714  MISS %: 31.8286  AVERAGE MISS PENALTY: 930613
L1D LOAD      ACCESS: 29849791  HIT: 19457506  MISS: 10392285  HIT %: 65.1847  MISS %: 34.8153  AVERAGE MISS PENALTY: 1.16459e+06
L1D RFO       ACCESS: 8868876  HIT: 8315512  MISS: 553364  HIT %: 93.7606  MISS %: 6.23939  AVERAGE MISS PENALTY: 50377.7
L1D PREFETCH  ACCESS: 2238656  HIT: 148161  MISS: 2090495  HIT %: 6.6183  MISS %: 93.3817  AVERAGE MISS PENALTY: 464.133
L1D WRITEBACK ACCESS:     0  HIT:     0  MISS:     0  HIT %:     0  MISS %:     0  AVERAGE MISS PENALTY: 0
L1D PREFETCH  REQUESTED: 2400446  ISSUED: 2391805  USEFUL: 140478  USELESS: 1950102
 USEFUL LOAD PREFETCHES:     140478 PREFETCH ISSUED TO LOWER LEVEL:    2242268  ACCURACY: 6.265
 TIMELY PREFETCHES:     140478 LATE PREFETCHES: 125863 DROPPED PREFETCHES: 8641
L1D AVERAGE MISS LATENCY: 2413.47 cycles
L1I TOTAL     ACCESS: 55404787  HIT: 55404787  MISS:     0  HIT %:   100  MISS %:     0  AVERAGE MISS PENALTY: 0
L1I LOAD      ACCESS: 55404787  HIT: 55404787  MISS:     0  HIT %:   100  MISS %:     0  AVERAGE MISS PENALTY: 0
L1I RFO       ACCESS:     0  HIT:     0  MISS:     0  HIT %:     0  MISS %:     0  AVERAGE MISS PENALTY: 0
L1I PREFETCH  ACCESS:     0  HIT:     0  MISS:     0  HIT %:     0  MISS %:     0  AVERAGE MISS PENALTY: 0
L1I WRITEBACK ACCESS:     0  HIT:     0  MISS:     0  HIT %:     0  MISS %:     0  AVERAGE MISS PENALTY: 0
L1I PREFETCH  REQUESTED:     0  ISSUED:     0  USEFUL:     0  USELESS:     0
 USEFUL LOAD PREFETCHES:          0 PREFETCH ISSUED TO LOWER LEVEL:          0  ACCURACY: -nan
 TIMELY PREFETCHES:          0 LATE PREFETCHES: 0 DROPPED PREFETCHES: 0
L1I AVERAGE MISS LATENCY: -nan cycles
L2C TOTAL     ACCESS: 18464146  HIT: 6823587  MISS: 11640559  HIT %: 36.9559  MISS %: 63.0441  AVERAGE MISS PENALTY: 1.37152e+06
L2C LOAD      ACCESS: 10391251  HIT: 1899852  MISS: 8491399  HIT %: 18.2832  MISS %: 81.7168  AVERAGE MISS PENALTY: 1.88e+06
L2C RFO       ACCESS: 553341  HIT: 260789  MISS: 292552  HIT %: 47.1299  MISS %: 52.8701  AVERAGE MISS PENALTY: 107.071
L2C PREFETCH  ACCESS: 3085147  HIT: 228539  MISS: 2856608  HIT %: 7.40772  MISS %: 92.5923  AVERAGE MISS PENALTY: 499.469
L2C WRITEBACK ACCESS: 4434407  HIT: 4434407  MISS:     0  HIT %:   100  MISS %:     0  AVERAGE MISS PENALTY: 0
L2C PREFETCH  REQUESTED: 1772043  ISSUED: 1756760  USEFUL: 100733  USELESS: 2757112
 USEFUL LOAD PREFETCHES:     100733 PREFETCH ISSUED TO LOWER LEVEL:    2913305  ACCURACY: 3.45769
 TIMELY PREFETCHES:     100733 LATE PREFETCHES: 43911 DROPPED PREFETCHES: 15283
L2C AVERAGE MISS LATENCY: 329.537 cycles
LLC0 TOTAL     ACCESS: 2036870  HIT: 987664  MISS: 1049206  HIT %: 48.4893  MISS %: 51.5107  AVERAGE MISS PENALTY: 407.334
LLC0 LOAD      ACCESS: 1066485  HIT: 398502  MISS: 667983  HIT %: 37.3659  MISS %: 62.6341  AVERAGE MISS PENALTY: 387.737
LLC0 RFO       ACCESS: 37776  HIT: 33651  MISS:  4125  HIT %: 89.0804  MISS %: 10.9196  AVERAGE MISS PENALTY: 433.664
LLC0 PREFETCH  ACCESS: 378308  HIT: 64418  MISS: 313890  HIT %: 17.0279  MISS %: 82.9721  AVERAGE MISS PENALTY: 530.718
LLC0 WRITEBACK ACCESS: 554301  HIT: 491093  MISS: 63208  HIT %: 88.5968  MISS %: 11.4032  AVERAGE MISS PENALTY: 0
LLC0 PREFETCH  REQUESTED:     0  ISSUED:     0  USEFUL: 414071  USELESS: 2111411
 USEFUL LOAD PREFETCHES:     414071 PREFETCH ISSUED TO LOWER LEVEL:    2526819  ACCURACY: 16.387
 TIMELY PREFETCHES:     414071 LATE PREFETCHES: 0 DROPPED PREFETCHES: 0
LLC0 AVERAGE MISS LATENCY: 407.334 cycles
Deadblocks : 4268673 Deadblock percentage : 639.039

LLC1 TOTAL     ACCESS: 2062084  HIT: 1004682  MISS: 1057402  HIT %: 48.7217  MISS %: 51.2783  AVERAGE MISS PENALTY: 407.87
LLC1 LOAD      ACCESS: 1080522  HIT: 415152  MISS: 665370  HIT %: 38.4214  MISS %: 61.5786  AVERAGE MISS PENALTY: 383.29
LLC1 RFO       ACCESS: 38150  HIT: 33882  MISS:  4268  HIT %: 88.8126  MISS %: 11.1874  AVERAGE MISS PENALTY: 433.851
LLC1 PREFETCH  ACCESS: 389091  HIT: 63910  MISS: 325181  HIT %: 16.4255  MISS %: 83.5745  AVERAGE MISS PENALTY: 536.321
LLC1 WRITEBACK ACCESS: 554321  HIT: 491738  MISS: 62583  HIT %: 88.71  MISS %: 11.29  AVERAGE MISS PENALTY: 0
LLC1 PREFETCH  REQUESTED:     0  ISSUED:     0  USEFUL: 445164  USELESS: 2161213
 USEFUL LOAD PREFETCHES:     445164 PREFETCH ISSUED TO LOWER LEVEL:    2609584  ACCURACY: 17.0588
 TIMELY PREFETCHES:     445164 LATE PREFETCHES: 0 DROPPED PREFETCHES: 0
LLC1 AVERAGE MISS LATENCY: 407.87 cycles
LLC2 TOTAL     ACCESS: 2090612  HIT: 1031143  MISS: 1059469  HIT %: 49.3225  MISS %: 50.6775  AVERAGE MISS PENALTY: 416.827
LLC2 LOAD      ACCESS: 1102313  HIT: 435838  MISS: 666475  HIT %: 39.5385  MISS %: 60.4615  AVERAGE MISS PENALTY: 393.879
LLC2 RFO       ACCESS: 39446  HIT: 34975  MISS:  4471  HIT %: 88.6655  MISS %: 11.3345  AVERAGE MISS PENALTY: 444.607
LLC2 PREFETCH  ACCESS: 394549  HIT: 66168  MISS: 328381  HIT %: 16.7705  MISS %: 83.2295  AVERAGE MISS PENALTY: 539.365
LLC2 WRITEBACK ACCESS: 554304  HIT: 494162  MISS: 60142  HIT %: 89.15  MISS %: 10.85  AVERAGE MISS PENALTY: 0
LLC2 PREFETCH  REQUESTED:     0  ISSUED:     0  USEFUL: 473385  USELESS: 2168814
 USEFUL LOAD PREFETCHES:     473385 PREFETCH ISSUED TO LOWER LEVEL:    2644217  ACCURACY: 17.9027
 TIMELY PREFETCHES:     473385 LATE PREFETCHES: 0 DROPPED PREFETCHES: 0
LLC2 AVERAGE MISS LATENCY: 416.827 cycles
LLC3 TOTAL     ACCESS: 1975097  HIT: 976690  MISS: 998407  HIT %: 49.4502  MISS %: 50.5498  AVERAGE MISS PENALTY: 412.243
LLC3 LOAD      ACCESS: 1045837  HIT: 393119  MISS: 652718  HIT %: 37.5889  MISS %: 62.4111  AVERAGE MISS PENALTY: 385.682
LLC3 RFO       ACCESS: 35376  HIT: 31743  MISS:  3633  HIT %: 89.7303  MISS %: 10.2697  AVERAGE MISS PENALTY: 461.569
LLC3 PREFETCH  ACCESS: 339586  HIT: 61998  MISS: 277588  HIT %: 18.2569  MISS %: 81.7431  AVERAGE MISS PENALTY: 569.793
LLC3 WRITEBACK ACCESS: 554298  HIT: 489830  MISS: 64468  HIT %: 88.3694  MISS %: 11.6306  AVERAGE MISS PENALTY: 0
LLC3 PREFETCH  REQUESTED:     0  ISSUED:     0  USEFUL: 466303  USELESS: 1766436
 USEFUL LOAD PREFETCHES:     466303 PREFETCH ISSUED TO LOWER LEVEL:    2235519  ACCURACY: 20.8588
 TIMELY PREFETCHES:     466303 LATE PREFETCHES: 0 DROPPED PREFETCHES: 0
LLC3 AVERAGE MISS LATENCY: 412.243 cycles
LLC4 TOTAL     ACCESS: 1971166  HIT: 969936  MISS: 1001230  HIT %: 49.2062  MISS %: 50.7938  AVERAGE MISS PENALTY: 406.512
LLC4 LOAD      ACCESS: 1039854  HIT: 386678  MISS: 653176  HIT %: 37.1858  MISS %: 62.8142  AVERAGE MISS PENALTY: 380.368
LLC4 RFO       ACCESS: 34945  HIT: 31480  MISS:  3465  HIT %: 90.0844  MISS %: 9.91558  AVERAGE MISS PENALTY: 457.405
LLC4 PREFETCH  ACCESS: 342043  HIT: 61077  MISS: 280966  HIT %: 17.8565  MISS %: 82.1435  AVERAGE MISS PENALTY: 558.716
LLC4 WRITEBACK ACCESS: 554324  HIT: 490701  MISS: 63623  HIT %: 88.5224  MISS %: 11.4776  AVERAGE MISS PENALTY: 0
LLC4 PREFETCH  REQUESTED:     0  ISSUED:     0  USEFUL: 465423  USELESS: 1799069
 USEFUL LOAD PREFETCHES:     465423 PREFETCH ISSUED TO LOWER LEVEL:    2267112  ACCURACY: 20.5293
 TIMELY PREFETCHES:     465423 LATE PREFETCHES: 0 DROPPED PREFETCHES: 0
LLC4 AVERAGE MISS LATENCY: 406.512 cycles
LLC5 TOTAL     ACCESS: 1980255  HIT: 973231  MISS: 1007024  HIT %: 49.1468  MISS %: 50.8532  AVERAGE MISS PENALTY: 406.868
LLC5 LOAD      ACCESS: 1042573  HIT: 389716  MISS: 652857  HIT %: 37.3802  MISS %: 62.6198  AVERAGE MISS PENALTY: 379.692
LLC5 RFO       ACCESS: 35420  HIT: 31769  MISS:  3651  HIT %: 89.6923  MISS %: 10.3077  AVERAGE MISS PENALTY: 454.669
LLC5 PREFETCH  ACCESS: 347964  HIT: 60426  MISS: 287538  HIT %: 17.3656  MISS %: 82.6344  AVERAGE MISS PENALTY: 557.079
LLC5 WRITEBACK ACCESS: 554298  HIT: 491320  MISS: 62978  HIT %: 88.6382  MISS %: 11.3618  AVERAGE MISS PENALTY: 0
LLC5 PREFETCH  REQUESTED:     0  ISSUED:     0  USEFUL: 466779  USELESS: 1843136
 USEFUL LOAD PREFETCHES:     466779 PREFETCH ISSUED TO LOWER LEVEL:    2312915  ACCURACY: 20.1814
 TIMELY PREFETCHES:     466779 LATE PREFETCHES: 0 DROPPED PREFETCHES: 0
LLC5 AVERAGE MISS LATENCY: 406.868 cycles
LLC6 TOTAL     ACCESS: 1970152  HIT: 966361  MISS: 1003791  HIT %: 49.0501  MISS %: 50.9499  AVERAGE MISS PENALTY: 409.228
LLC6 LOAD      ACCESS: 1038796  HIT: 387159  MISS: 651637  HIT %: 37.27  MISS %: 62.73  AVERAGE MISS PENALTY: 384.441
LLC6 RFO       ACCESS: 35318  HIT: 31690  MISS:  3628  HIT %: 89.7276  MISS %: 10.2724  AVERAGE MISS PENALTY: 450.977
LLC6 PREFETCH  ACCESS: 341710  HIT: 56821  MISS: 284889  HIT %: 16.6284  MISS %: 83.3716  AVERAGE MISS PENALTY: 556.805
LLC6 WRITEBACK ACCESS: 554328  HIT: 490691  MISS: 63637  HIT %: 88.52  MISS %: 11.48  AVERAGE MISS PENALTY: 0
LLC6 PREFETCH  REQUESTED:     0  ISSUED:     0  USEFUL: 462650  USELESS: 1828969
 USEFUL LOAD PREFETCHES:     462650 PREFETCH ISSUED TO LOWER LEVEL:    2294553  ACCURACY: 20.163
 TIMELY PREFETCHES:     462650 LATE PREFETCHES: 0 DROPPED PREFETCHES: 0
LLC6 AVERAGE MISS LATENCY: 409.228 cycles
LLC7 TOTAL     ACCESS: 1988787  HIT: 986962  MISS: 1001825  HIT %: 49.6263  MISS %: 50.3737  AVERAGE MISS PENALTY: 409.714
LLC7 LOAD      ACCESS: 1064063  HIT: 405314  MISS: 658749  HIT %: 38.0912  MISS %: 61.9088  AVERAGE MISS PENALTY: 384.699
LLC7 RFO       ACCESS: 36121  HIT: 32364  MISS:  3757  HIT %: 89.5988  MISS %: 10.4012  AVERAGE MISS PENALTY: 444.182
LLC7 PREFETCH  ACCESS: 334313  HIT: 58424  MISS: 275889  HIT %: 17.4758  MISS %: 82.5242  AVERAGE MISS PENALTY: 563.169
LLC7 WRITEBACK ACCESS: 554290  HIT: 490860  MISS: 63430  HIT %: 88.5565  MISS %: 11.4435  AVERAGE MISS PENALTY: 0
LLC7 PREFETCH  REQUESTED:     0  ISSUED:     0  USEFUL: 460412  USELESS: 1758828
 USEFUL LOAD PREFETCHES:     460412 PREFETCH ISSUED TO LOWER LEVEL:    2222002  ACCURACY: 20.7206
 TIMELY PREFETCHES:     460412 LATE PREFETCHES: 0 DROPPED PREFETCHES: 0
LLC7 AVERAGE MISS LATENCY: 409.714 cycles
ROI Average ROB Stall Cycles:	69.8524
ROI Total ROB Stalls Cycles:	1706717223
ROI TOTAL ROB counter      :	24433191
ROI Average Load ROB Stall Cycles:	210.161
ROI Total Load ROB Stalls Cycle  :	1516872163
ROI Total Load ROB stalls Counter:	7217656
Major fault: 0 Minor fault: 159458








Interconnect Stats 
LINK 0 BW : 0LINK 1 BW : 0LINK 2 BW : 0LINK 3 BW : 0LINK 4 BW : 0LINK 5 BW : 0LINK 6 BW : 0LINK 7 BW : 0
DRAM Statistics
 CHANNEL 0
 RQ ROW_BUFFER_HIT: 1778206  ROW_BUFFER_MISS: 29230676
 DBUS_CONGESTED: 48077636
 WQ ROW_BUFFER_HIT: 1268928  ROW_BUFFER_MISS: 16512515  FULL:     0

 CHANNEL 1
 RQ ROW_BUFFER_HIT: 1714902  ROW_BUFFER_MISS: 28868997
 DBUS_CONGESTED: 48077636
 WQ ROW_BUFFER_HIT: 1302437  ROW_BUFFER_MISS: 16480216  FULL:     0

 AVG_CONGESTED_CYCLE: 6
DRAM PAGES: 2097152
Allocated PAGES: 1275558
L2C destructor called
L1D destructor called
L1I destructor called
STLB destructor called
DTLB destructor called
ITLB destructor called
L2C destructor called
L1D destructor called
L1I destructor called
STLB destructor called
DTLB destructor called
ITLB destructor called
L2C destructor called
L1D destructor called
L1I destructor called
STLB destructor called
DTLB destructor called
ITLB destructor called
L2C destructor called
L1D destructor called
L1I destructor called
STLB destructor called
DTLB destructor called
ITLB destructor called
L2C destructor called
L1D destructor called
L1I destructor called
STLB destructor called
DTLB destructor called
ITLB destructor called
L2C destructor called
L1D destructor called
L1I destructor called
STLB destructor called
DTLB destructor called
ITLB destructor called
L2C destructor called
L1D destructor called
L1I destructor called
STLB destructor called
DTLB destructor called
ITLB destructor called
L2C destructor called
L1D destructor called
L1I destructor called
STLB destructor called
DTLB destructor called
ITLB destructor called
