
*** ChampSim Multicore Out-of-Order Simulator ***

Warmup Instructions: 200000000
Simulation Instructions: 200000000
Number of CPUs: 8
threads:1

L1I Configuration:
L1I_SET:64
L1I_WAY:8
L1I_RQ_SIZE:64
L1I_WQ_SIZE:64
L1I_PQ_SIZE:8
L1I_MSHR_SIZE:8

L1D Configuration:
L1D_SET:64
L1D_WAY:12
L1D_RQ_SIZE:64
L1D_WQ_SIZE:64
L1D_PQ_SIZE:8
L1D_MSHR_SIZE:16

L2C Configuration:
L2C_SET:1024
L2C_WAY:8
L2C_RQ_SIZE:32
L2C_WQ_SIZE:32
L2C_PQ_SIZE:16
L2C_MSHR_SIZE:32

LLC Configuration:
LLC_SET:2048
LLC_WAY:16
LLC SLICES:8
LLC_RQ_SIZE:64
LLC_WQ_SIZE:64
LLC_PQ_SIZE:32
LLC_MSHR_SIZE:64

Interconnect OFF
Attacker deprioritize is: OFF
Off-chip DRAM Size: 8192 MB Channels: 2 Width: 64-bit Data Rate: 3200 MT/s
PAGE SIZE in KB: 4.000000 
PAGE SIZE in MB: 0.003906 
PAGE offset in bits: 12 
CEASER-S_LLC:0
MIRAGE : 0
CEASER_LATENCY:3
REMAP : OFF
Partitions : 1
Multi-Step : OFF
BFS : OFF

CPU 0 runs /home/anubhav/spec_2017/605.mcf_s-484B.champsimtrace.xz
CPU 1 runs /home/anubhav/spec_2017/605.mcf_s-484B.champsimtrace.xz
CPU 2 runs /home/anubhav/spec_2017/605.mcf_s-484B.champsimtrace.xz
CPU 3 runs /home/anubhav/spec_2017/605.mcf_s-484B.champsimtrace.xz
CPU 4 runs /home/anubhav/spec_2017/605.mcf_s-484B.champsimtrace.xz
CPU 5 runs /home/anubhav/spec_2017/605.mcf_s-484B.champsimtrace.xz
CPU 6 runs /home/anubhav/spec_2017/605.mcf_s-484B.champsimtrace.xz
CPU 7 runs /home/anubhav/spec_2017/605.mcf_s-484B.champsimtrace.xz
CPU 0 Bimodal branch predictor
Initialize Hawkeye state
Initialize Hawkeye state
Initialize Hawkeye state
Initialize Hawkeye state
Initialize Hawkeye state
Initialize Hawkeye state
Initialize Hawkeye state
Initialize Hawkeye state
CPU 1 Bimodal branch predictor
Initialize Hawkeye state
Initialize Hawkeye state
Initialize Hawkeye state
Initialize Hawkeye state
Initialize Hawkeye state
Initialize Hawkeye state
Initialize Hawkeye state
Initialize Hawkeye state
CPU 2 Bimodal branch predictor
Initialize Hawkeye state
Initialize Hawkeye state
Initialize Hawkeye state
Initialize Hawkeye state
Initialize Hawkeye state
Initialize Hawkeye state
Initialize Hawkeye state
Initialize Hawkeye state
CPU 3 Bimodal branch predictor
Initialize Hawkeye state
Initialize Hawkeye state
Initialize Hawkeye state
Initialize Hawkeye state
Initialize Hawkeye state
Initialize Hawkeye state
Initialize Hawkeye state
Initialize Hawkeye state
CPU 4 Bimodal branch predictor
Initialize Hawkeye state
Initialize Hawkeye state
Initialize Hawkeye state
Initialize Hawkeye state
Initialize Hawkeye state
Initialize Hawkeye state
Initialize Hawkeye state
Initialize Hawkeye state
CPU 5 Bimodal branch predictor
Initialize Hawkeye state
Initialize Hawkeye state
Initialize Hawkeye state
Initialize Hawkeye state
Initialize Hawkeye state
Initialize Hawkeye state
Initialize Hawkeye state
Initialize Hawkeye state
CPU 6 Bimodal branch predictor
Initialize Hawkeye state
Initialize Hawkeye state
Initialize Hawkeye state
Initialize Hawkeye state
Initialize Hawkeye state
Initialize Hawkeye state
Initialize Hawkeye state
Initialize Hawkeye state
CPU 7 Bimodal branch predictor
Initialize Hawkeye state
Initialize Hawkeye state
Initialize Hawkeye state
Initialize Hawkeye state
Initialize Hawkeye state
Initialize Hawkeye state
Initialize Hawkeye state
Initialize Hawkeye state
Heartbeat CPU 7 instructions: 10000001 cycles: 5585945 heartbeat IPC: 1.79021 cumulative IPC: 1.79021 (Simulation time: 5 hr 13 min 26 sec) 
 Total Blocks : 262144 Invalid Blocks : 575
Heartbeat CPU 0 instructions: 10000001 cycles: 5586236 heartbeat IPC: 1.79011 cumulative IPC: 1.79011 (Simulation time: 5 hr 13 min 32 sec) 
 Total Blocks : 262144 Invalid Blocks : 575
Heartbeat CPU 3 instructions: 10000001 cycles: 5586287 heartbeat IPC: 1.7901 cumulative IPC: 1.7901 (Simulation time: 5 hr 13 min 32 sec) 
 Total Blocks : 262144 Invalid Blocks : 575
Heartbeat CPU 1 instructions: 10000001 cycles: 5586291 heartbeat IPC: 1.7901 cumulative IPC: 1.7901 (Simulation time: 5 hr 13 min 32 sec) 
 Total Blocks : 262144 Invalid Blocks : 575
Heartbeat CPU 2 instructions: 10000001 cycles: 5586340 heartbeat IPC: 1.79008 cumulative IPC: 1.79008 (Simulation time: 5 hr 13 min 33 sec) 
 Total Blocks : 262144 Invalid Blocks : 575
Heartbeat CPU 5 instructions: 10000001 cycles: 5586378 heartbeat IPC: 1.79007 cumulative IPC: 1.79007 (Simulation time: 5 hr 13 min 33 sec) 
 Total Blocks : 262144 Invalid Blocks : 575
Heartbeat CPU 4 instructions: 10000001 cycles: 5586434 heartbeat IPC: 1.79005 cumulative IPC: 1.79005 (Simulation time: 5 hr 13 min 33 sec) 
 Total Blocks : 262144 Invalid Blocks : 575
Heartbeat CPU 6 instructions: 10000001 cycles: 5586504 heartbeat IPC: 1.79003 cumulative IPC: 1.79003 (Simulation time: 5 hr 13 min 33 sec) 
 Total Blocks : 262144 Invalid Blocks : 575
Heartbeat CPU 0 instructions: 20000000 cycles: 11159037 heartbeat IPC: 1.79443 cumulative IPC: 1.79227 (Simulation time: 11 hr 11 min 46 sec) 
 Total Blocks : 262144 Invalid Blocks : 0
Heartbeat CPU 5 instructions: 20000000 cycles: 11159199 heartbeat IPC: 1.79442 cumulative IPC: 1.79224 (Simulation time: 11 hr 11 min 54 sec) 
 Total Blocks : 262144 Invalid Blocks : 0
Heartbeat CPU 4 instructions: 20000000 cycles: 11159215 heartbeat IPC: 1.79444 cumulative IPC: 1.79224 (Simulation time: 11 hr 11 min 55 sec) 
 Total Blocks : 262144 Invalid Blocks : 0
Heartbeat CPU 3 instructions: 20000000 cycles: 11159409 heartbeat IPC: 1.79433 cumulative IPC: 1.79221 (Simulation time: 11 hr 11 min 56 sec) 
 Total Blocks : 262144 Invalid Blocks : 0
Heartbeat CPU 7 instructions: 20000000 cycles: 11159469 heartbeat IPC: 1.7942 cumulative IPC: 1.7922 (Simulation time: 11 hr 11 min 56 sec) 
 Total Blocks : 262144 Invalid Blocks : 0
Heartbeat CPU 1 instructions: 20000000 cycles: 11159503 heartbeat IPC: 1.7943 cumulative IPC: 1.79219 (Simulation time: 11 hr 11 min 56 sec) 
 Total Blocks : 262144 Invalid Blocks : 0
Heartbeat CPU 2 instructions: 20000000 cycles: 11159606 heartbeat IPC: 1.79428 cumulative IPC: 1.79218 (Simulation time: 11 hr 11 min 56 sec) 
 Total Blocks : 262144 Invalid Blocks : 0
Heartbeat CPU 6 instructions: 20000000 cycles: 11160325 heartbeat IPC: 1.7941 cumulative IPC: 1.79206 (Simulation time: 11 hr 12 min 3 sec) 
 Total Blocks : 262144 Invalid Blocks : 0
Heartbeat CPU 4 instructions: 30000002 cycles: 16656120 heartbeat IPC: 1.81921 cumulative IPC: 1.80114 (Simulation time: 15 hr 24 min 1 sec) 
 Total Blocks : 262144 Invalid Blocks : 0
Heartbeat CPU 5 instructions: 30000002 cycles: 16656381 heartbeat IPC: 1.81911 cumulative IPC: 1.80111 (Simulation time: 15 hr 24 min 6 sec) 
 Total Blocks : 262144 Invalid Blocks : 0
Heartbeat CPU 3 instructions: 30000002 cycles: 16656758 heartbeat IPC: 1.81906 cumulative IPC: 1.80107 (Simulation time: 15 hr 24 min 7 sec) 
 Total Blocks : 262144 Invalid Blocks : 0
Heartbeat CPU 1 instructions: 30000002 cycles: 16656822 heartbeat IPC: 1.81907 cumulative IPC: 1.80106 (Simulation time: 15 hr 24 min 7 sec) 
 Total Blocks : 262144 Invalid Blocks : 0
Heartbeat CPU 2 instructions: 30000002 cycles: 16657043 heartbeat IPC: 1.81903 cumulative IPC: 1.80104 (Simulation time: 15 hr 24 min 7 sec) 
 Total Blocks : 262144 Invalid Blocks : 0
Heartbeat CPU 0 instructions: 30000002 cycles: 16657323 heartbeat IPC: 1.81875 cumulative IPC: 1.80101 (Simulation time: 15 hr 24 min 8 sec) 
 Total Blocks : 262144 Invalid Blocks : 0
Heartbeat CPU 6 instructions: 30000002 cycles: 16657968 heartbeat IPC: 1.81896 cumulative IPC: 1.80094 (Simulation time: 15 hr 24 min 9 sec) 
 Total Blocks : 262144 Invalid Blocks : 0
Heartbeat CPU 7 instructions: 30000002 cycles: 16658205 heartbeat IPC: 1.8186 cumulative IPC: 1.80091 (Simulation time: 15 hr 24 min 10 sec) 
 Total Blocks : 262144 Invalid Blocks : 0
Heartbeat CPU 5 instructions: 40000000 cycles: 22223825 heartbeat IPC: 1.79616 cumulative IPC: 1.79987 (Simulation time: 19 hr 1 min 24 sec) 
 Total Blocks : 262144 Invalid Blocks : 0
Heartbeat CPU 3 instructions: 40000000 cycles: 22223848 heartbeat IPC: 1.79627 cumulative IPC: 1.79987 (Simulation time: 19 hr 1 min 28 sec) 
 Total Blocks : 262144 Invalid Blocks : 0
Heartbeat CPU 1 instructions: 40000000 cycles: 22224035 heartbeat IPC: 1.79623 cumulative IPC: 1.79985 (Simulation time: 19 hr 1 min 28 sec) 
 Total Blocks : 262144 Invalid Blocks : 0
Heartbeat CPU 4 instructions: 40000000 cycles: 22224876 heartbeat IPC: 1.79573 cumulative IPC: 1.79979 (Simulation time: 19 hr 1 min 32 sec) 
 Total Blocks : 262144 Invalid Blocks : 0
Heartbeat CPU 2 instructions: 40000000 cycles: 22224979 heartbeat IPC: 1.796 cumulative IPC: 1.79978 (Simulation time: 19 hr 1 min 32 sec) 
 Total Blocks : 262144 Invalid Blocks : 0
Heartbeat CPU 0 instructions: 40000000 cycles: 22225498 heartbeat IPC: 1.79592 cumulative IPC: 1.79973 (Simulation time: 19 hr 1 min 33 sec) 
 Total Blocks : 262144 Invalid Blocks : 0
Heartbeat CPU 6 instructions: 40000000 cycles: 22225678 heartbeat IPC: 1.79607 cumulative IPC: 1.79972 (Simulation time: 19 hr 1 min 33 sec) 
 Total Blocks : 262144 Invalid Blocks : 0
Heartbeat CPU 7 instructions: 40000000 cycles: 22226574 heartbeat IPC: 1.79586 cumulative IPC: 1.79965 (Simulation time: 19 hr 1 min 34 sec) 
 Total Blocks : 262144 Invalid Blocks : 0
Heartbeat CPU 3 instructions: 50000000 cycles: 27762874 heartbeat IPC: 1.80537 cumulative IPC: 1.80097 (Simulation time: 22 hr 42 min 51 sec) 
 Total Blocks : 262144 Invalid Blocks : 0
Heartbeat CPU 5 instructions: 50000000 cycles: 27763481 heartbeat IPC: 1.80517 cumulative IPC: 1.80093 (Simulation time: 22 hr 42 min 54 sec) 
 Total Blocks : 262144 Invalid Blocks : 0
Heartbeat CPU 1 instructions: 50000000 cycles: 27763812 heartbeat IPC: 1.80513 cumulative IPC: 1.80091 (Simulation time: 22 hr 42 min 54 sec) 
 Total Blocks : 262144 Invalid Blocks : 0
Heartbeat CPU 2 instructions: 50000000 cycles: 27764409 heartbeat IPC: 1.80524 cumulative IPC: 1.80087 (Simulation time: 22 hr 42 min 55 sec) 
 Total Blocks : 262144 Invalid Blocks : 0
Heartbeat CPU 4 instructions: 50000000 cycles: 27764555 heartbeat IPC: 1.80516 cumulative IPC: 1.80086 (Simulation time: 22 hr 42 min 55 sec) 
 Total Blocks : 262144 Invalid Blocks : 0
Heartbeat CPU 0 instructions: 50000000 cycles: 27764582 heartbeat IPC: 1.80535 cumulative IPC: 1.80086 (Simulation time: 22 hr 42 min 55 sec) 
 Total Blocks : 262144 Invalid Blocks : 0
Heartbeat CPU 6 instructions: 50000000 cycles: 27766017 heartbeat IPC: 1.80494 cumulative IPC: 1.80076 (Simulation time: 22 hr 43 min 5 sec) 
 Total Blocks : 262144 Invalid Blocks : 0
Heartbeat CPU 7 instructions: 50000000 cycles: 27766603 heartbeat IPC: 1.80504 cumulative IPC: 1.80072 (Simulation time: 22 hr 43 min 7 sec) 
 Total Blocks : 262144 Invalid Blocks : 0
Heartbeat CPU 3 instructions: 60000000 cycles: 33313556 heartbeat IPC: 1.80158 cumulative IPC: 1.80107 (Simulation time: 25 hr 52 min 36 sec) 
 Total Blocks : 262144 Invalid Blocks : 0
Heartbeat CPU 5 instructions: 60000000 cycles: 33313854 heartbeat IPC: 1.80168 cumulative IPC: 1.80105 (Simulation time: 25 hr 52 min 38 sec) 
 Total Blocks : 262144 Invalid Blocks : 0
Heartbeat CPU 1 instructions: 60000000 cycles: 33313988 heartbeat IPC: 1.80174 cumulative IPC: 1.80105 (Simulation time: 25 hr 52 min 39 sec) 
 Total Blocks : 262144 Invalid Blocks : 0
Heartbeat CPU 0 instructions: 60000000 cycles: 33314641 heartbeat IPC: 1.80178 cumulative IPC: 1.80101 (Simulation time: 25 hr 52 min 41 sec) 
 Total Blocks : 262144 Invalid Blocks : 0
Heartbeat CPU 2 instructions: 60000000 cycles: 33314724 heartbeat IPC: 1.8017 cumulative IPC: 1.80101 (Simulation time: 25 hr 52 min 41 sec) 
 Total Blocks : 262144 Invalid Blocks : 0
Heartbeat CPU 4 instructions: 60000000 cycles: 33314822 heartbeat IPC: 1.80172 cumulative IPC: 1.801 (Simulation time: 25 hr 52 min 41 sec) 
 Total Blocks : 262144 Invalid Blocks : 0
Heartbeat CPU 6 instructions: 60000000 cycles: 33316727 heartbeat IPC: 1.80157 cumulative IPC: 1.8009 (Simulation time: 25 hr 52 min 45 sec) 
 Total Blocks : 262144 Invalid Blocks : 0
Heartbeat CPU 7 instructions: 60000000 cycles: 33318249 heartbeat IPC: 1.80127 cumulative IPC: 1.80081 (Simulation time: 25 hr 52 min 47 sec) 
 Total Blocks : 262144 Invalid Blocks : 0
Heartbeat CPU 3 instructions: 70000002 cycles: 38870566 heartbeat IPC: 1.79953 cumulative IPC: 1.80085 (Simulation time: 29 hr 49 min 5 sec) 
 Total Blocks : 262144 Invalid Blocks : 0
Heartbeat CPU 1 instructions: 70000002 cycles: 38870925 heartbeat IPC: 1.79955 cumulative IPC: 1.80083 (Simulation time: 29 hr 49 min 8 sec) 
 Total Blocks : 262144 Invalid Blocks : 0
Heartbeat CPU 5 instructions: 70000002 cycles: 38871079 heartbeat IPC: 1.79946 cumulative IPC: 1.80082 (Simulation time: 29 hr 49 min 8 sec) 
 Total Blocks : 262144 Invalid Blocks : 0
Heartbeat CPU 0 instructions: 70000002 cycles: 38871406 heartbeat IPC: 1.79961 cumulative IPC: 1.80081 (Simulation time: 29 hr 49 min 9 sec) 
 Total Blocks : 262144 Invalid Blocks : 0
Heartbeat CPU 2 instructions: 70000002 cycles: 38871656 heartbeat IPC: 1.79955 cumulative IPC: 1.8008 (Simulation time: 29 hr 49 min 9 sec) 
 Total Blocks : 262144 Invalid Blocks : 0
Heartbeat CPU 4 instructions: 70000002 cycles: 38872093 heartbeat IPC: 1.79944 cumulative IPC: 1.80078 (Simulation time: 29 hr 49 min 10 sec) 
 Total Blocks : 262144 Invalid Blocks : 0
Heartbeat CPU 6 instructions: 70000002 cycles: 38874375 heartbeat IPC: 1.79932 cumulative IPC: 1.80067 (Simulation time: 29 hr 49 min 12 sec) 
 Total Blocks : 262144 Invalid Blocks : 0
Heartbeat CPU 7 instructions: 70000002 cycles: 38876178 heartbeat IPC: 1.79923 cumulative IPC: 1.80059 (Simulation time: 29 hr 49 min 15 sec) 
 Total Blocks : 262144 Invalid Blocks : 0
Heartbeat CPU 3 instructions: 80000003 cycles: 44479125 heartbeat IPC: 1.78299 cumulative IPC: 1.7986 (Simulation time: 35 hr 11 min 20 sec) 
 Total Blocks : 262144 Invalid Blocks : 0
Heartbeat CPU 1 instructions: 80000003 cycles: 44479468 heartbeat IPC: 1.78299 cumulative IPC: 1.79858 (Simulation time: 35 hr 11 min 22 sec) 
 Total Blocks : 262144 Invalid Blocks : 0
Heartbeat CPU 0 instructions: 80000003 cycles: 44479782 heartbeat IPC: 1.78305 cumulative IPC: 1.79857 (Simulation time: 35 hr 11 min 22 sec) 
 Total Blocks : 262144 Invalid Blocks : 0
Heartbeat CPU 5 instructions: 80000003 cycles: 44480078 heartbeat IPC: 1.78285 cumulative IPC: 1.79856 (Simulation time: 35 hr 11 min 22 sec) 
 Total Blocks : 262144 Invalid Blocks : 0
Heartbeat CPU 2 instructions: 80000003 cycles: 44480114 heartbeat IPC: 1.78302 cumulative IPC: 1.79856 (Simulation time: 35 hr 11 min 22 sec) 
 Total Blocks : 262144 Invalid Blocks : 0
Heartbeat CPU 4 instructions: 80000003 cycles: 44480995 heartbeat IPC: 1.78288 cumulative IPC: 1.79852 (Simulation time: 35 hr 11 min 23 sec) 
 Total Blocks : 262144 Invalid Blocks : 0
Heartbeat CPU 6 instructions: 80000003 cycles: 44483543 heartbeat IPC: 1.7828 cumulative IPC: 1.79842 (Simulation time: 35 hr 11 min 29 sec) 
 Total Blocks : 262144 Invalid Blocks : 0
Heartbeat CPU 7 instructions: 80000003 cycles: 44485614 heartbeat IPC: 1.78271 cumulative IPC: 1.79833 (Simulation time: 35 hr 11 min 34 sec) 
 Total Blocks : 262144 Invalid Blocks : 0
Heartbeat CPU 3 instructions: 90000000 cycles: 50017074 heartbeat IPC: 1.80572 cumulative IPC: 1.79939 (Simulation time: 38 hr 46 min 18 sec) 
 Total Blocks : 262144 Invalid Blocks : 0
Heartbeat CPU 1 instructions: 90000000 cycles: 50017840 heartbeat IPC: 1.80558 cumulative IPC: 1.79936 (Simulation time: 38 hr 46 min 20 sec) 
 Total Blocks : 262144 Invalid Blocks : 0
Heartbeat CPU 2 instructions: 90000000 cycles: 50018143 heartbeat IPC: 1.8057 cumulative IPC: 1.79935 (Simulation time: 38 hr 46 min 21 sec) 
 Total Blocks : 262144 Invalid Blocks : 0
Heartbeat CPU 5 instructions: 90000000 cycles: 50018314 heartbeat IPC: 1.80563 cumulative IPC: 1.79934 (Simulation time: 38 hr 46 min 22 sec) 
 Total Blocks : 262144 Invalid Blocks : 0
Heartbeat CPU 0 instructions: 90000000 cycles: 50020038 heartbeat IPC: 1.80497 cumulative IPC: 1.79928 (Simulation time: 38 hr 46 min 23 sec) 
 Total Blocks : 262144 Invalid Blocks : 0
Heartbeat CPU 4 instructions: 90000000 cycles: 50021338 heartbeat IPC: 1.80494 cumulative IPC: 1.79923 (Simulation time: 38 hr 46 min 25 sec) 
 Total Blocks : 262144 Invalid Blocks : 0
Heartbeat CPU 6 instructions: 90000000 cycles: 50025201 heartbeat IPC: 1.80451 cumulative IPC: 1.79909 (Simulation time: 38 hr 46 min 29 sec) 
 Total Blocks : 262144 Invalid Blocks : 0
Heartbeat CPU 7 instructions: 90000000 cycles: 50026344 heartbeat IPC: 1.80482 cumulative IPC: 1.79905 (Simulation time: 38 hr 46 min 30 sec) 
 Total Blocks : 262144 Invalid Blocks : 0
Heartbeat CPU 3 instructions: 100000001 cycles: 55532638 heartbeat IPC: 1.81305 cumulative IPC: 1.80074 (Simulation time: 41 hr 49 min 30 sec) 
 Total Blocks : 262144 Invalid Blocks : 0
Heartbeat CPU 1 instructions: 100000001 cycles: 55533459 heartbeat IPC: 1.81303 cumulative IPC: 1.80072 (Simulation time: 41 hr 49 min 33 sec) 
 Total Blocks : 262144 Invalid Blocks : 0
Heartbeat CPU 5 instructions: 100000001 cycles: 55533990 heartbeat IPC: 1.81301 cumulative IPC: 1.8007 (Simulation time: 41 hr 49 min 34 sec) 
 Total Blocks : 262144 Invalid Blocks : 0
Heartbeat CPU 2 instructions: 100000001 cycles: 55534333 heartbeat IPC: 1.81285 cumulative IPC: 1.80069 (Simulation time: 41 hr 49 min 35 sec) 
 Total Blocks : 262144 Invalid Blocks : 0
Heartbeat CPU 0 instructions: 100000001 cycles: 55536823 heartbeat IPC: 1.81265 cumulative IPC: 1.80061 (Simulation time: 41 hr 49 min 36 sec) 
 Total Blocks : 262144 Invalid Blocks : 0
Heartbeat CPU 4 instructions: 100000001 cycles: 55538744 heartbeat IPC: 1.81245 cumulative IPC: 1.80054 (Simulation time: 41 hr 49 min 38 sec) 
 Total Blocks : 262144 Invalid Blocks : 0
Heartbeat CPU 6 instructions: 100000001 cycles: 55542358 heartbeat IPC: 1.81253 cumulative IPC: 1.80043 (Simulation time: 41 hr 49 min 40 sec) 
 Total Blocks : 262144 Invalid Blocks : 0
Heartbeat CPU 7 instructions: 100000001 cycles: 55543545 heartbeat IPC: 1.81251 cumulative IPC: 1.80039 (Simulation time: 41 hr 49 min 42 sec) 
 Total Blocks : 262144 Invalid Blocks : 0
Heartbeat CPU 1 instructions: 110000000 cycles: 61028737 heartbeat IPC: 1.81974 cumulative IPC: 1.80243 (Simulation time: 44 hr 41 min 13 sec) 
 Total Blocks : 262144 Invalid Blocks : 0
Heartbeat CPU 2 instructions: 110000000 cycles: 61029414 heartbeat IPC: 1.81981 cumulative IPC: 1.80241 (Simulation time: 44 hr 41 min 16 sec) 
 Total Blocks : 262144 Invalid Blocks : 0
Heartbeat CPU 3 instructions: 110000000 cycles: 61029464 heartbeat IPC: 1.81923 cumulative IPC: 1.80241 (Simulation time: 44 hr 41 min 16 sec) 
 Total Blocks : 262144 Invalid Blocks : 0
Heartbeat CPU 5 instructions: 110000000 cycles: 61029482 heartbeat IPC: 1.81967 cumulative IPC: 1.80241 (Simulation time: 44 hr 41 min 16 sec) 
 Total Blocks : 262144 Invalid Blocks : 0
Heartbeat CPU 0 instructions: 110000000 cycles: 61031778 heartbeat IPC: 1.81985 cumulative IPC: 1.80234 (Simulation time: 44 hr 41 min 20 sec) 
 Total Blocks : 262144 Invalid Blocks : 0
Heartbeat CPU 4 instructions: 110000000 cycles: 61035820 heartbeat IPC: 1.81915 cumulative IPC: 1.80222 (Simulation time: 44 hr 41 min 25 sec) 
 Total Blocks : 262144 Invalid Blocks : 0
Heartbeat CPU 7 instructions: 110000000 cycles: 61039259 heartbeat IPC: 1.8196 cumulative IPC: 1.80212 (Simulation time: 44 hr 41 min 29 sec) 
 Total Blocks : 262144 Invalid Blocks : 0
Heartbeat CPU 6 instructions: 110000000 cycles: 61039501 heartbeat IPC: 1.81913 cumulative IPC: 1.80211 (Simulation time: 44 hr 41 min 30 sec) 
 Total Blocks : 262144 Invalid Blocks : 0
Heartbeat CPU 1 instructions: 120000000 cycles: 66542256 heartbeat IPC: 1.81372 cumulative IPC: 1.80337 (Simulation time: 47 hr 5 min 37 sec) 
 Total Blocks : 262144 Invalid Blocks : 0
Heartbeat CPU 5 instructions: 120000000 cycles: 66542327 heartbeat IPC: 1.81395 cumulative IPC: 1.80336 (Simulation time: 47 hr 5 min 39 sec) 
 Total Blocks : 262144 Invalid Blocks : 0
Heartbeat CPU 2 instructions: 120000000 cycles: 66543392 heartbeat IPC: 1.81357 cumulative IPC: 1.80333 (Simulation time: 47 hr 5 min 42 sec) 
 Total Blocks : 262144 Invalid Blocks : 0
Heartbeat CPU 3 instructions: 120000000 cycles: 66543408 heartbeat IPC: 1.81358 cumulative IPC: 1.80333 (Simulation time: 47 hr 5 min 42 sec) 
 Total Blocks : 262144 Invalid Blocks : 0
Heartbeat CPU 0 instructions: 120000000 cycles: 66543738 heartbeat IPC: 1.81424 cumulative IPC: 1.80333 (Simulation time: 47 hr 5 min 42 sec) 
 Total Blocks : 262144 Invalid Blocks : 0
Heartbeat CPU 4 instructions: 120000000 cycles: 66549771 heartbeat IPC: 1.81358 cumulative IPC: 1.80316 (Simulation time: 47 hr 5 min 51 sec) 
 Total Blocks : 262144 Invalid Blocks : 0
Heartbeat CPU 7 instructions: 120000000 cycles: 66550833 heartbeat IPC: 1.81436 cumulative IPC: 1.80313 (Simulation time: 47 hr 5 min 52 sec) 
 Total Blocks : 262144 Invalid Blocks : 0
Heartbeat CPU 6 instructions: 120000000 cycles: 66553950 heartbeat IPC: 1.81342 cumulative IPC: 1.80305 (Simulation time: 47 hr 5 min 57 sec) 
 Total Blocks : 262144 Invalid Blocks : 0
Heartbeat CPU 3 instructions: 130000001 cycles: 72093243 heartbeat IPC: 1.80186 cumulative IPC: 1.80322 (Simulation time: 49 hr 52 min 3 sec) 
 Total Blocks : 262144 Invalid Blocks : 0
Heartbeat CPU 0 instructions: 130000001 cycles: 72093470 heartbeat IPC: 1.80189 cumulative IPC: 1.80321 (Simulation time: 49 hr 52 min 5 sec) 
 Total Blocks : 262144 Invalid Blocks : 0
Heartbeat CPU 5 instructions: 130000001 cycles: 72093590 heartbeat IPC: 1.80139 cumulative IPC: 1.80321 (Simulation time: 49 hr 52 min 5 sec) 
 Total Blocks : 262144 Invalid Blocks : 0
Heartbeat CPU 1 instructions: 130000001 cycles: 72093943 heartbeat IPC: 1.80125 cumulative IPC: 1.8032 (Simulation time: 49 hr 52 min 6 sec) 
 Total Blocks : 262144 Invalid Blocks : 0
Heartbeat CPU 2 instructions: 130000001 cycles: 72095084 heartbeat IPC: 1.80125 cumulative IPC: 1.80317 (Simulation time: 49 hr 52 min 9 sec) 
 Total Blocks : 262144 Invalid Blocks : 0
Heartbeat CPU 4 instructions: 130000001 cycles: 72099784 heartbeat IPC: 1.8018 cumulative IPC: 1.80306 (Simulation time: 49 hr 52 min 20 sec) 
 Total Blocks : 262144 Invalid Blocks : 0
Heartbeat CPU 7 instructions: 130000001 cycles: 72102024 heartbeat IPC: 1.80142 cumulative IPC: 1.803 (Simulation time: 49 hr 52 min 27 sec) 
 Total Blocks : 262144 Invalid Blocks : 0
Heartbeat CPU 6 instructions: 130000001 cycles: 72103952 heartbeat IPC: 1.8018 cumulative IPC: 1.80295 (Simulation time: 49 hr 52 min 30 sec) 
 Total Blocks : 262144 Invalid Blocks : 0
Heartbeat CPU 3 instructions: 140000003 cycles: 77628254 heartbeat IPC: 1.80668 cumulative IPC: 1.80347 (Simulation time: 52 hr 14 min 47 sec) 
 Total Blocks : 262144 Invalid Blocks : 0
Heartbeat CPU 0 instructions: 140000003 cycles: 77628327 heartbeat IPC: 1.80673 cumulative IPC: 1.80347 (Simulation time: 52 hr 14 min 49 sec) 
 Total Blocks : 262144 Invalid Blocks : 0
Heartbeat CPU 5 instructions: 140000003 cycles: 77628529 heartbeat IPC: 1.8067 cumulative IPC: 1.80346 (Simulation time: 52 hr 14 min 49 sec) 
 Total Blocks : 262144 Invalid Blocks : 0
Heartbeat CPU 1 instructions: 140000003 cycles: 77628850 heartbeat IPC: 1.80672 cumulative IPC: 1.80345 (Simulation time: 52 hr 14 min 50 sec) 
 Total Blocks : 262144 Invalid Blocks : 0
Heartbeat CPU 2 instructions: 140000003 cycles: 77630477 heartbeat IPC: 1.80656 cumulative IPC: 1.80342 (Simulation time: 52 hr 14 min 51 sec) 
 Total Blocks : 262144 Invalid Blocks : 0
Heartbeat CPU 4 instructions: 140000003 cycles: 77634996 heartbeat IPC: 1.80662 cumulative IPC: 1.80331 (Simulation time: 52 hr 14 min 55 sec) 
 Total Blocks : 262144 Invalid Blocks : 0
Heartbeat CPU 7 instructions: 140000003 cycles: 77637373 heartbeat IPC: 1.80657 cumulative IPC: 1.80326 (Simulation time: 52 hr 14 min 58 sec) 
 Total Blocks : 262144 Invalid Blocks : 0
Heartbeat CPU 6 instructions: 140000003 cycles: 77639131 heartbeat IPC: 1.80663 cumulative IPC: 1.80321 (Simulation time: 52 hr 15 min 1 sec) 
 Total Blocks : 262144 Invalid Blocks : 0
Heartbeat CPU 0 instructions: 150000000 cycles: 83145888 heartbeat IPC: 1.81239 cumulative IPC: 1.80406 (Simulation time: 54 hr 50 min 9 sec) 
 Total Blocks : 262144 Invalid Blocks : 0
Heartbeat CPU 1 instructions: 150000000 cycles: 83146404 heartbeat IPC: 1.8124 cumulative IPC: 1.80405 (Simulation time: 54 hr 50 min 32 sec) 
 Total Blocks : 262144 Invalid Blocks : 0
Heartbeat CPU 3 instructions: 150000000 cycles: 83146430 heartbeat IPC: 1.81219 cumulative IPC: 1.80405 (Simulation time: 54 hr 50 min 34 sec) 
 Total Blocks : 262144 Invalid Blocks : 0
Heartbeat CPU 5 instructions: 150000000 cycles: 83146838 heartbeat IPC: 1.81215 cumulative IPC: 1.80404 (Simulation time: 54 hr 50 min 34 sec) 
 Total Blocks : 262144 Invalid Blocks : 0
Heartbeat CPU 2 instructions: 150000000 cycles: 83148134 heartbeat IPC: 1.81236 cumulative IPC: 1.80401 (Simulation time: 54 hr 50 min 35 sec) 
 Total Blocks : 262144 Invalid Blocks : 0
Heartbeat CPU 4 instructions: 150000000 cycles: 83152819 heartbeat IPC: 1.81231 cumulative IPC: 1.80391 (Simulation time: 54 hr 50 min 40 sec) 
 Total Blocks : 262144 Invalid Blocks : 0
Heartbeat CPU 7 instructions: 150000000 cycles: 83155637 heartbeat IPC: 1.81216 cumulative IPC: 1.80385 (Simulation time: 54 hr 50 min 42 sec) 
 Total Blocks : 262144 Invalid Blocks : 0
Heartbeat CPU 6 instructions: 150000000 cycles: 83157210 heartbeat IPC: 1.81222 cumulative IPC: 1.80381 (Simulation time: 54 hr 50 min 43 sec) 
 Total Blocks : 262144 Invalid Blocks : 0
Heartbeat CPU 3 instructions: 160000001 cycles: 88699565 heartbeat IPC: 1.80078 cumulative IPC: 1.80384 (Simulation time: 58 hr 5 min 44 sec) 
 Total Blocks : 262144 Invalid Blocks : 0
Heartbeat CPU 0 instructions: 160000001 cycles: 88699803 heartbeat IPC: 1.80053 cumulative IPC: 1.80384 (Simulation time: 58 hr 5 min 45 sec) 
 Total Blocks : 262144 Invalid Blocks : 0
Heartbeat CPU 1 instructions: 160000001 cycles: 88699953 heartbeat IPC: 1.80065 cumulative IPC: 1.80383 (Simulation time: 58 hr 5 min 45 sec) 
 Total Blocks : 262144 Invalid Blocks : 0
Heartbeat CPU 5 instructions: 160000001 cycles: 88699965 heartbeat IPC: 1.80079 cumulative IPC: 1.80383 (Simulation time: 58 hr 5 min 45 sec) 
 Total Blocks : 262144 Invalid Blocks : 0
Heartbeat CPU 2 instructions: 160000001 cycles: 88705320 heartbeat IPC: 1.79947 cumulative IPC: 1.80373 (Simulation time: 58 hr 5 min 54 sec) 
 Total Blocks : 262144 Invalid Blocks : 0
Heartbeat CPU 4 instructions: 160000001 cycles: 88706016 heartbeat IPC: 1.80076 cumulative IPC: 1.80371 (Simulation time: 58 hr 5 min 57 sec) 
 Total Blocks : 262144 Invalid Blocks : 0
Heartbeat CPU 7 instructions: 160000001 cycles: 88710118 heartbeat IPC: 1.80035 cumulative IPC: 1.80363 (Simulation time: 58 hr 6 min 6 sec) 
 Total Blocks : 262144 Invalid Blocks : 0
Heartbeat CPU 6 instructions: 160000001 cycles: 88711496 heartbeat IPC: 1.80041 cumulative IPC: 1.8036 (Simulation time: 58 hr 6 min 9 sec) 
 Total Blocks : 262144 Invalid Blocks : 0
Heartbeat CPU 3 instructions: 170000001 cycles: 94231487 heartbeat IPC: 1.80769 cumulative IPC: 1.80407 (Simulation time: 60 hr 45 min 1 sec) 
 Total Blocks : 262144 Invalid Blocks : 0
Heartbeat CPU 0 instructions: 170000001 cycles: 94231504 heartbeat IPC: 1.80776 cumulative IPC: 1.80407 (Simulation time: 60 hr 45 min 3 sec) 
 Total Blocks : 262144 Invalid Blocks : 0
Heartbeat CPU 4 instructions: 170000001 cycles: 94232389 heartbeat IPC: 1.80951 cumulative IPC: 1.80405 (Simulation time: 60 hr 45 min 3 sec) 
 Total Blocks : 262144 Invalid Blocks : 0
Heartbeat CPU 1 instructions: 170000001 cycles: 94232500 heartbeat IPC: 1.80749 cumulative IPC: 1.80405 (Simulation time: 60 hr 45 min 3 sec) 
 Total Blocks : 262144 Invalid Blocks : 0
Heartbeat CPU 5 instructions: 170000001 cycles: 94232774 heartbeat IPC: 1.8074 cumulative IPC: 1.80404 (Simulation time: 60 hr 45 min 3 sec) 
 Total Blocks : 262144 Invalid Blocks : 0
Heartbeat CPU 2 instructions: 170000001 cycles: 94238248 heartbeat IPC: 1.80736 cumulative IPC: 1.80394 (Simulation time: 60 hr 45 min 10 sec) 
 Total Blocks : 262144 Invalid Blocks : 0
Heartbeat CPU 7 instructions: 170000001 cycles: 94243012 heartbeat IPC: 1.80737 cumulative IPC: 1.80385 (Simulation time: 60 hr 45 min 15 sec) 
 Total Blocks : 262144 Invalid Blocks : 0
Heartbeat CPU 6 instructions: 170000001 cycles: 94244511 heartbeat IPC: 1.80733 cumulative IPC: 1.80382 (Simulation time: 60 hr 45 min 16 sec) 
 Total Blocks : 262144 Invalid Blocks : 0
Heartbeat CPU 0 instructions: 180000001 cycles: 99724480 heartbeat IPC: 1.82051 cumulative IPC: 1.80497 (Simulation time: 63 hr 17 min 18 sec) 
 Total Blocks : 262144 Invalid Blocks : 0
Heartbeat CPU 3 instructions: 180000001 cycles: 99726642 heartbeat IPC: 1.81978 cumulative IPC: 1.80493 (Simulation time: 63 hr 17 min 20 sec) 
 Total Blocks : 262144 Invalid Blocks : 0
Heartbeat CPU 1 instructions: 180000001 cycles: 99735855 heartbeat IPC: 1.81707 cumulative IPC: 1.80477 (Simulation time: 63 hr 17 min 27 sec) 
 Total Blocks : 262144 Invalid Blocks : 0
Heartbeat CPU 7 instructions: 180000001 cycles: 99738267 heartbeat IPC: 1.81975 cumulative IPC: 1.80472 (Simulation time: 63 hr 17 min 30 sec) 
 Total Blocks : 262144 Invalid Blocks : 0
Heartbeat CPU 4 instructions: 180000001 cycles: 99740722 heartbeat IPC: 1.81543 cumulative IPC: 1.80468 (Simulation time: 63 hr 17 min 32 sec) 
 Total Blocks : 262144 Invalid Blocks : 0
Heartbeat CPU 5 instructions: 180000001 cycles: 99741270 heartbeat IPC: 1.81538 cumulative IPC: 1.80467 (Simulation time: 63 hr 17 min 32 sec) 
 Total Blocks : 262144 Invalid Blocks : 0
Heartbeat CPU 2 instructions: 180000001 cycles: 99745146 heartbeat IPC: 1.8159 cumulative IPC: 1.8046 (Simulation time: 63 hr 17 min 36 sec) 
 Total Blocks : 262144 Invalid Blocks : 0
Heartbeat CPU 6 instructions: 180000001 cycles: 99752082 heartbeat IPC: 1.81568 cumulative IPC: 1.80447 (Simulation time: 63 hr 17 min 43 sec) 
 Total Blocks : 262144 Invalid Blocks : 0
Heartbeat CPU 0 instructions: 190000000 cycles: 105228929 heartbeat IPC: 1.81671 cumulative IPC: 1.80559 (Simulation time: 65 hr 40 min 54 sec) 
 Total Blocks : 262144 Invalid Blocks : 0
Heartbeat CPU 3 instructions: 190000000 cycles: 105230352 heartbeat IPC: 1.81696 cumulative IPC: 1.80556 (Simulation time: 65 hr 40 min 57 sec) 
 Total Blocks : 262144 Invalid Blocks : 0
Heartbeat CPU 1 instructions: 190000000 cycles: 105240079 heartbeat IPC: 1.81679 cumulative IPC: 1.8054 (Simulation time: 65 hr 41 min 5 sec) 
 Total Blocks : 262144 Invalid Blocks : 0
Heartbeat CPU 7 instructions: 190000000 cycles: 105241733 heartbeat IPC: 1.81704 cumulative IPC: 1.80537 (Simulation time: 65 hr 41 min 8 sec) 
 Total Blocks : 262144 Invalid Blocks : 0
Heartbeat CPU 4 instructions: 190000000 cycles: 105244418 heartbeat IPC: 1.81696 cumulative IPC: 1.80532 (Simulation time: 65 hr 41 min 11 sec) 
 Total Blocks : 262144 Invalid Blocks : 0
Heartbeat CPU 5 instructions: 190000000 cycles: 105245542 heartbeat IPC: 1.81677 cumulative IPC: 1.8053 (Simulation time: 65 hr 41 min 14 sec) 
 Total Blocks : 262144 Invalid Blocks : 0
Heartbeat CPU 2 instructions: 190000000 cycles: 105250856 heartbeat IPC: 1.8163 cumulative IPC: 1.80521 (Simulation time: 65 hr 41 min 20 sec) 
 Total Blocks : 262144 Invalid Blocks : 0
Heartbeat CPU 6 instructions: 190000000 cycles: 105257442 heartbeat IPC: 1.81641 cumulative IPC: 1.8051 (Simulation time: 65 hr 41 min 27 sec) 
 Total Blocks : 262144 Invalid Blocks : 0
Heartbeat CPU 3 instructions: 200000003 cycles: 110752485 heartbeat IPC: 1.81089 cumulative IPC: 1.80583 (Simulation time: 67 hr 42 min 5 sec) 
 Total Blocks : 262144 Invalid Blocks : 0
Heartbeat CPU 0 instructions: 200000003 cycles: 110752667 heartbeat IPC: 1.81037 cumulative IPC: 1.80583 (Simulation time: 67 hr 42 min 5 sec) 
 Total Blocks : 262144 Invalid Blocks : 0
Heartbeat CPU 1 instructions: 200000003 cycles: 110762948 heartbeat IPC: 1.81065 cumulative IPC: 1.80566 (Simulation time: 67 hr 42 min 16 sec) 
 Total Blocks : 262144 Invalid Blocks : 0
Heartbeat CPU 7 instructions: 200000003 cycles: 110763911 heartbeat IPC: 1.81088 cumulative IPC: 1.80564 (Simulation time: 67 hr 42 min 18 sec) 
 Total Blocks : 262144 Invalid Blocks : 0
Heartbeat CPU 4 instructions: 200000003 cycles: 110766852 heartbeat IPC: 1.8108 cumulative IPC: 1.80559 (Simulation time: 67 hr 42 min 20 sec) 
 Total Blocks : 262144 Invalid Blocks : 0
Heartbeat CPU 5 instructions: 200000003 cycles: 110767933 heartbeat IPC: 1.81081 cumulative IPC: 1.80558 (Simulation time: 67 hr 42 min 21 sec) 
 Total Blocks : 262144 Invalid Blocks : 0
Heartbeat CPU 2 instructions: 200000003 cycles: 110773270 heartbeat IPC: 1.8108 cumulative IPC: 1.80549 (Simulation time: 67 hr 42 min 24 sec) 
 Total Blocks : 262144 Invalid Blocks : 0
Heartbeat CPU 6 instructions: 200000003 cycles: 110779483 heartbeat IPC: 1.81093 cumulative IPC: 1.80539 (Simulation time: 67 hr 42 min 29 sec) 
 Total Blocks : 262144 Invalid Blocks : 0

Warmup complete CPU 0 instructions: 200053137 cycles: 110779483 (Simulation time: 67 hr 42 min 29 sec) 
Warmup complete CPU 1 instructions: 200032648 cycles: 110779483 (Simulation time: 67 hr 42 min 29 sec) 
Warmup complete CPU 2 instructions: 200012070 cycles: 110779483 (Simulation time: 67 hr 42 min 29 sec) 
Warmup complete CPU 3 instructions: 200053362 cycles: 110779483 (Simulation time: 67 hr 42 min 29 sec) 
Warmup complete CPU 4 instructions: 200024923 cycles: 110779483 (Simulation time: 67 hr 42 min 29 sec) 
Warmup complete CPU 5 instructions: 200022734 cycles: 110779483 (Simulation time: 67 hr 42 min 29 sec) 
Warmup complete CPU 6 instructions: 200000003 cycles: 110779483 (Simulation time: 67 hr 42 min 29 sec) 
Warmup complete CPU 7 instructions: 200030788 cycles: 110779482 (Simulation time: 67 hr 42 min 29 sec) 

Heartbeat CPU 3 instructions: 210000002 cycles: 159285029 heartbeat IPC: 0.206047 cumulative IPC: 0.205062 (Simulation time: 72 hr 33 min 18 sec) 
 Total Blocks : 262144 Invalid Blocks : 0
Heartbeat CPU 0 instructions: 210000002 cycles: 159312093 heartbeat IPC: 0.205933 cumulative IPC: 0.204952 (Simulation time: 72 hr 33 min 35 sec) 
 Total Blocks : 262144 Invalid Blocks : 0
Heartbeat CPU 1 instructions: 210000002 cycles: 159545294 heartbeat IPC: 0.204992 cumulative IPC: 0.204392 (Simulation time: 72 hr 35 min 49 sec) 
 Total Blocks : 262144 Invalid Blocks : 0
Heartbeat CPU 4 instructions: 210000002 cycles: 159568631 heartbeat IPC: 0.204911 cumulative IPC: 0.204453 (Simulation time: 72 hr 35 min 59 sec) 
 Total Blocks : 262144 Invalid Blocks : 0
Heartbeat CPU 7 instructions: 210000002 cycles: 159778010 heartbeat IPC: 0.204023 cumulative IPC: 0.203459 (Simulation time: 72 hr 37 min 36 sec) 
 Total Blocks : 262144 Invalid Blocks : 0
Heartbeat CPU 2 instructions: 210000002 cycles: 159830252 heartbeat IPC: 0.203845 cumulative IPC: 0.203624 (Simulation time: 72 hr 37 min 59 sec) 
 Total Blocks : 262144 Invalid Blocks : 0
Heartbeat CPU 5 instructions: 210000002 cycles: 159926223 heartbeat IPC: 0.203424 cumulative IPC: 0.20301 (Simulation time: 72 hr 38 min 47 sec) 
 Total Blocks : 262144 Invalid Blocks : 0
Heartbeat CPU 6 instructions: 210000002 cycles: 159941470 heartbeat IPC: 0.203409 cumulative IPC: 0.203409 (Simulation time: 72 hr 38 min 57 sec) 
 Total Blocks : 262144 Invalid Blocks : 0
Heartbeat CPU 3 instructions: 220000000 cycles: 190189032 heartbeat IPC: 0.323583 cumulative IPC: 0.251187 (Simulation time: 74 hr 39 min 8 sec) 
 Total Blocks : 262144 Invalid Blocks : 0
Heartbeat CPU 0 instructions: 220000000 cycles: 190211102 heartbeat IPC: 0.323635 cumulative IPC: 0.25112 (Simulation time: 74 hr 39 min 31 sec) 
 Total Blocks : 262144 Invalid Blocks : 0
Heartbeat CPU 4 instructions: 220000000 cycles: 190627185 heartbeat IPC: 0.321972 cumulative IPC: 0.250165 (Simulation time: 74 hr 46 min 14 sec) 
 Total Blocks : 262144 Invalid Blocks : 0
Heartbeat CPU 1 instructions: 220000000 cycles: 190630400 heartbeat IPC: 0.321697 cumulative IPC: 0.250058 (Simulation time: 74 hr 46 min 19 sec) 
 Total Blocks : 262144 Invalid Blocks : 0
Heartbeat CPU 6 instructions: 220000000 cycles: 190711432 heartbeat IPC: 0.324992 cumulative IPC: 0.250213 (Simulation time: 74 hr 47 min 28 sec) 
 Total Blocks : 262144 Invalid Blocks : 0
Heartbeat CPU 7 instructions: 220000000 cycles: 190711857 heartbeat IPC: 0.32327 cumulative IPC: 0.249826 (Simulation time: 74 hr 47 min 29 sec) 
 Total Blocks : 262144 Invalid Blocks : 0
Heartbeat CPU 2 instructions: 220000000 cycles: 190930453 heartbeat IPC: 0.321541 cumulative IPC: 0.249379 (Simulation time: 74 hr 50 min 33 sec) 
 Total Blocks : 262144 Invalid Blocks : 0
Heartbeat CPU 5 instructions: 220000000 cycles: 191044567 heartbeat IPC: 0.321354 cumulative IPC: 0.248891 (Simulation time: 74 hr 51 min 56 sec) 
 Total Blocks : 262144 Invalid Blocks : 0
Heartbeat CPU 3 instructions: 230000002 cycles: 218828396 heartbeat IPC: 0.34917 cumulative IPC: 0.277158 (Simulation time: 78 hr 13 min 24 sec) 
 Total Blocks : 262144 Invalid Blocks : 0
Heartbeat CPU 0 instructions: 230000002 cycles: 218841638 heartbeat IPC: 0.349277 cumulative IPC: 0.277126 (Simulation time: 78 hr 13 min 29 sec) 
 Total Blocks : 262144 Invalid Blocks : 0
Heartbeat CPU 1 instructions: 230000002 cycles: 219335394 heartbeat IPC: 0.348372 cumulative IPC: 0.276055 (Simulation time: 78 hr 16 min 36 sec) 
 Total Blocks : 262144 Invalid Blocks : 0
Heartbeat CPU 4 instructions: 230000002 cycles: 219355906 heartbeat IPC: 0.348084 cumulative IPC: 0.276074 (Simulation time: 78 hr 16 min 43 sec) 
 Total Blocks : 262144 Invalid Blocks : 0
Heartbeat CPU 7 instructions: 230000002 cycles: 219421591 heartbeat IPC: 0.348314 cumulative IPC: 0.275853 (Simulation time: 78 hr 17 min 0 sec) 
 Total Blocks : 262144 Invalid Blocks : 0
Heartbeat CPU 6 instructions: 230000002 cycles: 219433032 heartbeat IPC: 0.34817 cumulative IPC: 0.276107 (Simulation time: 78 hr 17 min 4 sec) 
 Total Blocks : 262144 Invalid Blocks : 0
Heartbeat CPU 2 instructions: 230000002 cycles: 219835354 heartbeat IPC: 0.345962 cumulative IPC: 0.274978 (Simulation time: 78 hr 19 min 0 sec) 
 Total Blocks : 262144 Invalid Blocks : 0
Heartbeat CPU 5 instructions: 230000002 cycles: 219842354 heartbeat IPC: 0.347249 cumulative IPC: 0.274862 (Simulation time: 78 hr 19 min 7 sec) 
 Total Blocks : 262144 Invalid Blocks : 0
Heartbeat CPU 0 instructions: 240000000 cycles: 252944432 heartbeat IPC: 0.293231 cumulative IPC: 0.28099 (Simulation time: 81 hr 36 min 36 sec) 
 Total Blocks : 262144 Invalid Blocks : 0
Heartbeat CPU 3 instructions: 240000000 cycles: 252968871 heartbeat IPC: 0.292907 cumulative IPC: 0.28094 (Simulation time: 81 hr 36 min 42 sec) 
 Total Blocks : 262144 Invalid Blocks : 0
Heartbeat CPU 4 instructions: 240000000 cycles: 253360423 heartbeat IPC: 0.294079 cumulative IPC: 0.280368 (Simulation time: 81 hr 38 min 31 sec) 
 Total Blocks : 262144 Invalid Blocks : 0
Heartbeat CPU 1 instructions: 240000000 cycles: 253388397 heartbeat IPC: 0.29366 cumulative IPC: 0.280258 (Simulation time: 81 hr 38 min 40 sec) 
 Total Blocks : 262144 Invalid Blocks : 0
Heartbeat CPU 6 instructions: 240000000 cycles: 253533989 heartbeat IPC: 0.293247 cumulative IPC: 0.280201 (Simulation time: 81 hr 39 min 22 sec) 
 Total Blocks : 262144 Invalid Blocks : 0
Heartbeat CPU 7 instructions: 240000000 cycles: 253642363 heartbeat IPC: 0.29222 cumulative IPC: 0.279773 (Simulation time: 81 hr 39 min 57 sec) 
 Total Blocks : 262144 Invalid Blocks : 0
Heartbeat CPU 5 instructions: 240000000 cycles: 253686073 heartbeat IPC: 0.295476 cumulative IPC: 0.279744 (Simulation time: 81 hr 40 min 13 sec) 
 Total Blocks : 262144 Invalid Blocks : 0
Heartbeat CPU 2 instructions: 240000000 cycles: 253711093 heartbeat IPC: 0.295196 cumulative IPC: 0.27977 (Simulation time: 81 hr 40 min 24 sec) 
 Total Blocks : 262144 Invalid Blocks : 0
Heartbeat CPU 0 instructions: 250000000 cycles: 294798621 heartbeat IPC: 0.238925 cumulative IPC: 0.271422 (Simulation time: 85 hr 3 min 23 sec) 
 Total Blocks : 262144 Invalid Blocks : 0
Heartbeat CPU 3 instructions: 250000000 cycles: 294826497 heartbeat IPC: 0.238905 cumulative IPC: 0.27138 (Simulation time: 85 hr 3 min 42 sec) 
 Total Blocks : 262144 Invalid Blocks : 0
Heartbeat CPU 1 instructions: 250000000 cycles: 295299766 heartbeat IPC: 0.238599 cumulative IPC: 0.270796 (Simulation time: 85 hr 9 min 19 sec) 
 Total Blocks : 262144 Invalid Blocks : 0
Heartbeat CPU 4 instructions: 250000000 cycles: 295334251 heartbeat IPC: 0.238244 cumulative IPC: 0.270787 (Simulation time: 85 hr 9 min 42 sec) 
 Total Blocks : 262144 Invalid Blocks : 0
Heartbeat CPU 7 instructions: 250000000 cycles: 295775425 heartbeat IPC: 0.237343 cumulative IPC: 0.27011 (Simulation time: 85 hr 15 min 17 sec) 
 Total Blocks : 262144 Invalid Blocks : 0
Heartbeat CPU 6 instructions: 250000000 cycles: 295824305 heartbeat IPC: 0.236461 cumulative IPC: 0.270205 (Simulation time: 85 hr 15 min 45 sec) 
 Total Blocks : 262144 Invalid Blocks : 0
Heartbeat CPU 5 instructions: 250000000 cycles: 295861967 heartbeat IPC: 0.237102 cumulative IPC: 0.270027 (Simulation time: 85 hr 16 min 8 sec) 
 Total Blocks : 262144 Invalid Blocks : 0
Heartbeat CPU 2 instructions: 250000000 cycles: 295926243 heartbeat IPC: 0.236882 cumulative IPC: 0.269991 (Simulation time: 85 hr 16 min 49 sec) 
 Total Blocks : 262144 Invalid Blocks : 0
Heartbeat CPU 0 instructions: 260000000 cycles: 319335641 heartbeat IPC: 0.407547 cumulative IPC: 0.287437 (Simulation time: 87 hr 17 min 43 sec) 
 Total Blocks : 262144 Invalid Blocks : 0
Heartbeat CPU 3 instructions: 260000000 cycles: 319411347 heartbeat IPC: 0.406755 cumulative IPC: 0.287332 (Simulation time: 87 hr 18 min 41 sec) 
 Total Blocks : 262144 Invalid Blocks : 0
Heartbeat CPU 4 instructions: 260000000 cycles: 319762443 heartbeat IPC: 0.409363 cumulative IPC: 0.286985 (Simulation time: 87 hr 23 min 41 sec) 
 Total Blocks : 262144 Invalid Blocks : 0
Heartbeat CPU 1 instructions: 260000000 cycles: 319769360 heartbeat IPC: 0.40867 cumulative IPC: 0.286939 (Simulation time: 87 hr 23 min 49 sec) 
 Total Blocks : 262144 Invalid Blocks : 0
Heartbeat CPU 7 instructions: 260000000 cycles: 320320469 heartbeat IPC: 0.407414 cumulative IPC: 0.286193 (Simulation time: 87 hr 33 min 46 sec) 
 Total Blocks : 262144 Invalid Blocks : 0
Heartbeat CPU 5 instructions: 260000000 cycles: 320340893 heartbeat IPC: 0.408515 cumulative IPC: 0.286204 (Simulation time: 87 hr 34 min 0 sec) 
 Total Blocks : 262144 Invalid Blocks : 0
Heartbeat CPU 6 instructions: 260000000 cycles: 320353568 heartbeat IPC: 0.407676 cumulative IPC: 0.286295 (Simulation time: 87 hr 34 min 10 sec) 
 Total Blocks : 262144 Invalid Blocks : 0
Heartbeat CPU 2 instructions: 260000000 cycles: 320449070 heartbeat IPC: 0.407783 cumulative IPC: 0.286107 (Simulation time: 87 hr 35 min 29 sec) 
 Total Blocks : 262144 Invalid Blocks : 0
Heartbeat CPU 3 instructions: 270000001 cycles: 357928187 heartbeat IPC: 0.259627 cumulative IPC: 0.283014 (Simulation time: 92 hr 57 min 57 sec) 
 Total Blocks : 262144 Invalid Blocks : 0
Heartbeat CPU 0 instructions: 270000001 cycles: 357935472 heartbeat IPC: 0.259069 cumulative IPC: 0.283007 (Simulation time: 92 hr 58 min 3 sec) 
 Total Blocks : 262144 Invalid Blocks : 0
Heartbeat CPU 4 instructions: 270000001 cycles: 358222178 heartbeat IPC: 0.260012 cumulative IPC: 0.282793 (Simulation time: 93 hr 1 min 35 sec) 
 Total Blocks : 262144 Invalid Blocks : 0
Heartbeat CPU 1 instructions: 270000001 cycles: 358274155 heartbeat IPC: 0.259708 cumulative IPC: 0.282702 (Simulation time: 93 hr 2 min 13 sec) 
 Total Blocks : 262144 Invalid Blocks : 0
Heartbeat CPU 7 instructions: 270000001 cycles: 358565165 heartbeat IPC: 0.261474 cumulative IPC: 0.282378 (Simulation time: 93 hr 5 min 57 sec) 
 Total Blocks : 262144 Invalid Blocks : 0
Heartbeat CPU 5 instructions: 270000001 cycles: 358662460 heartbeat IPC: 0.26095 cumulative IPC: 0.2823 (Simulation time: 93 hr 7 min 13 sec) 
 Total Blocks : 262144 Invalid Blocks : 0
Heartbeat CPU 6 instructions: 270000001 cycles: 358699164 heartbeat IPC: 0.260786 cumulative IPC: 0.282349 (Simulation time: 93 hr 7 min 45 sec) 
 Total Blocks : 262144 Invalid Blocks : 0
Heartbeat CPU 2 instructions: 270000001 cycles: 358781560 heartbeat IPC: 0.260875 cumulative IPC: 0.282207 (Simulation time: 93 hr 8 min 52 sec) 
 Total Blocks : 262144 Invalid Blocks : 0
Heartbeat CPU 3 instructions: 280000001 cycles: 392244244 heartbeat IPC: 0.291409 cumulative IPC: 0.284038 (Simulation time: 95 hr 54 min 40 sec) 
 Total Blocks : 262144 Invalid Blocks : 0
Heartbeat CPU 4 instructions: 280000001 cycles: 392261202 heartbeat IPC: 0.29378 cumulative IPC: 0.284122 (Simulation time: 95 hr 54 min 51 sec) 
 Total Blocks : 262144 Invalid Blocks : 0
Heartbeat CPU 0 instructions: 280000001 cycles: 392351177 heartbeat IPC: 0.290565 cumulative IPC: 0.283931 (Simulation time: 95 hr 56 min 3 sec) 
 Total Blocks : 262144 Invalid Blocks : 0
Heartbeat CPU 1 instructions: 280000001 cycles: 392379597 heartbeat IPC: 0.293208 cumulative IPC: 0.283975 (Simulation time: 95 hr 56 min 31 sec) 
 Total Blocks : 262144 Invalid Blocks : 0
Heartbeat CPU 7 instructions: 280000001 cycles: 392531971 heartbeat IPC: 0.294405 cumulative IPC: 0.283828 (Simulation time: 95 hr 58 min 40 sec) 
 Total Blocks : 262144 Invalid Blocks : 0
Heartbeat CPU 6 instructions: 280000001 cycles: 392558420 heartbeat IPC: 0.29534 cumulative IPC: 0.28391 (Simulation time: 95 hr 59 min 1 sec) 
 Total Blocks : 262144 Invalid Blocks : 0
Heartbeat CPU 5 instructions: 280000001 cycles: 392854394 heartbeat IPC: 0.292467 cumulative IPC: 0.283532 (Simulation time: 96 hr 3 min 20 sec) 
 Total Blocks : 262144 Invalid Blocks : 0
Heartbeat CPU 2 instructions: 280000001 cycles: 392956437 heartbeat IPC: 0.292613 cumulative IPC: 0.283467 (Simulation time: 96 hr 5 min 4 sec) 
 Total Blocks : 262144 Invalid Blocks : 0
Heartbeat CPU 3 instructions: 290000002 cycles: 434965754 heartbeat IPC: 0.234074 cumulative IPC: 0.277454 (Simulation time: 99 hr 53 min 18 sec) 
 Total Blocks : 262144 Invalid Blocks : 0
Heartbeat CPU 4 instructions: 290000002 cycles: 434968894 heartbeat IPC: 0.23415 cumulative IPC: 0.277539 (Simulation time: 99 hr 53 min 19 sec) 
 Total Blocks : 262144 Invalid Blocks : 0
Heartbeat CPU 0 instructions: 290000002 cycles: 435250658 heartbeat IPC: 0.233103 cumulative IPC: 0.277211 (Simulation time: 99 hr 54 min 40 sec) 
 Total Blocks : 262144 Invalid Blocks : 0
Heartbeat CPU 1 instructions: 290000002 cycles: 435279048 heartbeat IPC: 0.233103 cumulative IPC: 0.27725 (Simulation time: 99 hr 54 min 46 sec) 
 Total Blocks : 262144 Invalid Blocks : 0
Heartbeat CPU 6 instructions: 290000002 cycles: 435531340 heartbeat IPC: 0.232705 cumulative IPC: 0.277135 (Simulation time: 99 hr 55 min 58 sec) 
 Total Blocks : 262144 Invalid Blocks : 0
Heartbeat CPU 7 instructions: 290000002 cycles: 435644102 heartbeat IPC: 0.231953 cumulative IPC: 0.276944 (Simulation time: 99 hr 56 min 31 sec) 
 Total Blocks : 262144 Invalid Blocks : 0
Heartbeat CPU 5 instructions: 290000002 cycles: 435883134 heartbeat IPC: 0.232403 cumulative IPC: 0.276765 (Simulation time: 99 hr 57 min 40 sec) 
 Total Blocks : 262144 Invalid Blocks : 0
Heartbeat CPU 2 instructions: 290000002 cycles: 435892259 heartbeat IPC: 0.232906 cumulative IPC: 0.27679 (Simulation time: 99 hr 57 min 43 sec) 
 Total Blocks : 262144 Invalid Blocks : 0
Heartbeat CPU 4 instructions: 300000001 cycles: 470445980 heartbeat IPC: 0.281872 cumulative IPC: 0.277966 (Simulation time: 102 hr 44 min 16 sec) 
 Total Blocks : 262144 Invalid Blocks : 0
Heartbeat CPU 3 instructions: 300000000 cycles: 470524927 heartbeat IPC: 0.281221 cumulative IPC: 0.277826 (Simulation time: 102 hr 44 min 24 sec) 
 Total Blocks : 262144 Invalid Blocks : 0
Heartbeat CPU 0 instructions: 300000000 cycles: 471314819 heartbeat IPC: 0.277284 cumulative IPC: 0.277218 (Simulation time: 102 hr 45 min 29 sec) 
 Total Blocks : 262144 Invalid Blocks : 0
Heartbeat CPU 1 instructions: 300000000 cycles: 471477754 heartbeat IPC: 0.276253 cumulative IPC: 0.27715 (Simulation time: 102 hr 45 min 42 sec) 
 Total Blocks : 262144 Invalid Blocks : 0
Heartbeat CPU 6 instructions: 300000000 cycles: 471746569 heartbeat IPC: 0.276127 cumulative IPC: 0.277034 (Simulation time: 102 hr 45 min 59 sec) 
 Total Blocks : 262144 Invalid Blocks : 0
Heartbeat CPU 7 instructions: 300000001 cycles: 471798393 heartbeat IPC: 0.276592 cumulative IPC: 0.276909 (Simulation time: 102 hr 46 min 2 sec) 
 Total Blocks : 262144 Invalid Blocks : 0
Heartbeat CPU 5 instructions: 300000000 cycles: 471960081 heartbeat IPC: 0.277185 cumulative IPC: 0.276807 (Simulation time: 102 hr 46 min 13 sec) 
 Total Blocks : 262144 Invalid Blocks : 0
Heartbeat CPU 2 instructions: 300000000 cycles: 472068096 heartbeat IPC: 0.276428 cumulative IPC: 0.276754 (Simulation time: 102 hr 46 min 22 sec) 
 Total Blocks : 262144 Invalid Blocks : 0
Heartbeat CPU 4 instructions: 310000003 cycles: 506890653 heartbeat IPC: 0.274389 cumulative IPC: 0.277637 (Simulation time: 105 hr 32 min 44 sec) 
 Total Blocks : 262144 Invalid Blocks : 0
Heartbeat CPU 3 instructions: 310000003 cycles: 506986700 heartbeat IPC: 0.27426 cumulative IPC: 0.277498 (Simulation time: 105 hr 33 min 15 sec) 
 Total Blocks : 262144 Invalid Blocks : 0
Heartbeat CPU 1 instructions: 310000003 cycles: 507266652 heartbeat IPC: 0.279416 cumulative IPC: 0.277354 (Simulation time: 105 hr 34 min 51 sec) 
 Total Blocks : 262144 Invalid Blocks : 0
Heartbeat CPU 0 instructions: 310000003 cycles: 507270928 heartbeat IPC: 0.278117 cumulative IPC: 0.277299 (Simulation time: 105 hr 34 min 52 sec) 
 Total Blocks : 262144 Invalid Blocks : 0
Heartbeat CPU 5 instructions: 310000003 cycles: 507322061 heartbeat IPC: 0.28279 cumulative IPC: 0.27734 (Simulation time: 105 hr 35 min 6 sec) 
 Total Blocks : 262144 Invalid Blocks : 0
Heartbeat CPU 6 instructions: 310000003 cycles: 507324861 heartbeat IPC: 0.28107 cumulative IPC: 0.277396 (Simulation time: 105 hr 35 min 8 sec) 
 Total Blocks : 262144 Invalid Blocks : 0
Heartbeat CPU 7 instructions: 310000003 cycles: 507347232 heartbeat IPC: 0.281303 cumulative IPC: 0.277302 (Simulation time: 105 hr 35 min 15 sec) 
 Total Blocks : 262144 Invalid Blocks : 0
Heartbeat CPU 2 instructions: 310000003 cycles: 507354143 heartbeat IPC: 0.283398 cumulative IPC: 0.277345 (Simulation time: 105 hr 35 min 17 sec) 
 Total Blocks : 262144 Invalid Blocks : 0
Heartbeat CPU 4 instructions: 320000002 cycles: 550874147 heartbeat IPC: 0.227358 cumulative IPC: 0.272612 (Simulation time: 110 hr 30 min 15 sec) 
 Total Blocks : 262144 Invalid Blocks : 0
Heartbeat CPU 1 instructions: 320000002 cycles: 550905734 heartbeat IPC: 0.229152 cumulative IPC: 0.272575 (Simulation time: 110 hr 30 min 36 sec) 
 Total Blocks : 262144 Invalid Blocks : 0
Heartbeat CPU 3 instructions: 320000002 cycles: 551205992 heartbeat IPC: 0.226146 cumulative IPC: 0.272342 (Simulation time: 110 hr 34 min 9 sec) 
 Total Blocks : 262144 Invalid Blocks : 0
Heartbeat CPU 0 instructions: 320000002 cycles: 551362010 heartbeat IPC: 0.226803 cumulative IPC: 0.272246 (Simulation time: 110 hr 35 min 44 sec) 
 Total Blocks : 262144 Invalid Blocks : 0
Heartbeat CPU 7 instructions: 320000002 cycles: 551371829 heartbeat IPC: 0.227146 cumulative IPC: 0.272291 (Simulation time: 110 hr 35 min 53 sec) 
 Total Blocks : 262144 Invalid Blocks : 0
Heartbeat CPU 5 instructions: 320000002 cycles: 551413355 heartbeat IPC: 0.226802 cumulative IPC: 0.272283 (Simulation time: 110 hr 36 min 26 sec) 
 Total Blocks : 262144 Invalid Blocks : 0
Heartbeat CPU 6 instructions: 320000002 cycles: 551499691 heartbeat IPC: 0.226373 cumulative IPC: 0.272282 (Simulation time: 110 hr 37 min 23 sec) 
 Total Blocks : 262144 Invalid Blocks : 0
Heartbeat CPU 2 instructions: 320000002 cycles: 551515990 heartbeat IPC: 0.22644 cumulative IPC: 0.272244 (Simulation time: 110 hr 37 min 34 sec) 
 Total Blocks : 262144 Invalid Blocks : 0
Heartbeat CPU 4 instructions: 330000000 cycles: 578656833 heartbeat IPC: 0.359936 cumulative IPC: 0.277797 (Simulation time: 113 hr 11 min 42 sec) 
 Total Blocks : 262144 Invalid Blocks : 0
Heartbeat CPU 1 instructions: 330000000 cycles: 578718116 heartbeat IPC: 0.359552 cumulative IPC: 0.277744 (Simulation time: 113 hr 11 min 55 sec) 
 Total Blocks : 262144 Invalid Blocks : 0
Heartbeat CPU 0 instructions: 330000000 cycles: 578880445 heartbeat IPC: 0.363393 cumulative IPC: 0.277604 (Simulation time: 113 hr 12 min 32 sec) 
 Total Blocks : 262144 Invalid Blocks : 0
Heartbeat CPU 3 instructions: 330000000 cycles: 578881005 heartbeat IPC: 0.361337 cumulative IPC: 0.277604 (Simulation time: 113 hr 12 min 33 sec) 
 Total Blocks : 262144 Invalid Blocks : 0
Heartbeat CPU 7 instructions: 330000000 cycles: 578940825 heartbeat IPC: 0.362726 cumulative IPC: 0.277616 (Simulation time: 113 hr 12 min 47 sec) 
 Total Blocks : 262144 Invalid Blocks : 0
Heartbeat CPU 5 instructions: 330000000 cycles: 579001812 heartbeat IPC: 0.36247 cumulative IPC: 0.277597 (Simulation time: 113 hr 13 min 1 sec) 
 Total Blocks : 262144 Invalid Blocks : 0
Heartbeat CPU 6 instructions: 330000000 cycles: 579029504 heartbeat IPC: 0.363243 cumulative IPC: 0.277629 (Simulation time: 113 hr 13 min 6 sec) 
 Total Blocks : 262144 Invalid Blocks : 0
Heartbeat CPU 2 instructions: 330000000 cycles: 579121697 heartbeat IPC: 0.362244 cumulative IPC: 0.277549 (Simulation time: 113 hr 13 min 30 sec) 
 Total Blocks : 262144 Invalid Blocks : 0
Heartbeat CPU 1 instructions: 340000000 cycles: 626523128 heartbeat IPC: 0.209183 cumulative IPC: 0.271389 (Simulation time: 116 hr 22 min 24 sec) 
 Total Blocks : 262144 Invalid Blocks : 0
Heartbeat CPU 5 instructions: 340000000 cycles: 626554047 heartbeat IPC: 0.210295 cumulative IPC: 0.271392 (Simulation time: 116 hr 22 min 33 sec) 
 Total Blocks : 262144 Invalid Blocks : 0
Heartbeat CPU 4 instructions: 340000000 cycles: 627163286 heartbeat IPC: 0.206158 cumulative IPC: 0.271068 (Simulation time: 116 hr 24 min 56 sec) 
 Total Blocks : 262144 Invalid Blocks : 0
Heartbeat CPU 3 instructions: 340000000 cycles: 627327566 heartbeat IPC: 0.206413 cumulative IPC: 0.270927 (Simulation time: 116 hr 25 min 37 sec) 
 Total Blocks : 262144 Invalid Blocks : 0
Heartbeat CPU 0 instructions: 340000000 cycles: 627386337 heartbeat IPC: 0.206161 cumulative IPC: 0.270896 (Simulation time: 116 hr 25 min 51 sec) 
 Total Blocks : 262144 Invalid Blocks : 0
Heartbeat CPU 7 instructions: 340000000 cycles: 627608078 heartbeat IPC: 0.205477 cumulative IPC: 0.270823 (Simulation time: 116 hr 26 min 34 sec) 
 Total Blocks : 262144 Invalid Blocks : 0
Heartbeat CPU 6 instructions: 340000000 cycles: 627854235 heartbeat IPC: 0.204814 cumulative IPC: 0.270754 (Simulation time: 116 hr 27 min 24 sec) 
 Total Blocks : 262144 Invalid Blocks : 0
Heartbeat CPU 2 instructions: 340000000 cycles: 628135677 heartbeat IPC: 0.204023 cumulative IPC: 0.270583 (Simulation time: 116 hr 28 min 28 sec) 
 Total Blocks : 262144 Invalid Blocks : 0
Heartbeat CPU 1 instructions: 350000002 cycles: 666017423 heartbeat IPC: 0.253201 cumulative IPC: 0.270096 (Simulation time: 119 hr 54 min 12 sec) 
 Total Blocks : 262144 Invalid Blocks : 0
Heartbeat CPU 5 instructions: 350000002 cycles: 666038123 heartbeat IPC: 0.253267 cumulative IPC: 0.270103 (Simulation time: 119 hr 54 min 27 sec) 
 Total Blocks : 262144 Invalid Blocks : 0
Heartbeat CPU 3 instructions: 350000002 cycles: 666695592 heartbeat IPC: 0.254013 cumulative IPC: 0.269729 (Simulation time: 119 hr 59 min 59 sec) 
 Total Blocks : 262144 Invalid Blocks : 0
Heartbeat CPU 4 instructions: 350000002 cycles: 666719672 heartbeat IPC: 0.252804 cumulative IPC: 0.269768 (Simulation time: 120 hr 0 min 6 sec) 
 Total Blocks : 262144 Invalid Blocks : 0
Heartbeat CPU 0 instructions: 350000002 cycles: 667007862 heartbeat IPC: 0.252388 cumulative IPC: 0.269578 (Simulation time: 120 hr 1 min 27 sec) 
 Total Blocks : 262144 Invalid Blocks : 0
Heartbeat CPU 7 instructions: 350000002 cycles: 667067678 heartbeat IPC: 0.253424 cumulative IPC: 0.269589 (Simulation time: 120 hr 1 min 41 sec) 
 Total Blocks : 262144 Invalid Blocks : 0
Heartbeat CPU 6 instructions: 350000002 cycles: 667198476 heartbeat IPC: 0.254167 cumulative IPC: 0.269581 (Simulation time: 120 hr 2 min 11 sec) 
 Total Blocks : 262144 Invalid Blocks : 0
Heartbeat CPU 2 instructions: 350000002 cycles: 667260908 heartbeat IPC: 0.25559 cumulative IPC: 0.269529 (Simulation time: 120 hr 2 min 28 sec) 
 Total Blocks : 262144 Invalid Blocks : 0
Heartbeat CPU 1 instructions: 360000000 cycles: 706416447 heartbeat IPC: 0.247531 cumulative IPC: 0.268565 (Simulation time: 122 hr 47 min 36 sec) 
 Total Blocks : 262144 Invalid Blocks : 0
Heartbeat CPU 5 instructions: 360000000 cycles: 706481650 heartbeat IPC: 0.247258 cumulative IPC: 0.268552 (Simulation time: 122 hr 47 min 50 sec) 
 Total Blocks : 262144 Invalid Blocks : 0
Heartbeat CPU 3 instructions: 360000000 cycles: 706793987 heartbeat IPC: 0.249386 cumulative IPC: 0.26836 (Simulation time: 122 hr 48 min 58 sec) 
 Total Blocks : 262144 Invalid Blocks : 0
Heartbeat CPU 4 instructions: 360000000 cycles: 706836414 heartbeat IPC: 0.249272 cumulative IPC: 0.268389 (Simulation time: 122 hr 49 min 8 sec) 
 Total Blocks : 262144 Invalid Blocks : 0
Heartbeat CPU 7 instructions: 360000000 cycles: 706900468 heartbeat IPC: 0.251049 cumulative IPC: 0.26835 (Simulation time: 122 hr 49 min 22 sec) 
 Total Blocks : 262144 Invalid Blocks : 0
Heartbeat CPU 0 instructions: 360000000 cycles: 706916221 heartbeat IPC: 0.250574 cumulative IPC: 0.268306 (Simulation time: 122 hr 49 min 24 sec) 
 Total Blocks : 262144 Invalid Blocks : 0
Heartbeat CPU 6 instructions: 360000000 cycles: 707332262 heartbeat IPC: 0.249167 cumulative IPC: 0.268208 (Simulation time: 122 hr 50 min 59 sec) 
 Total Blocks : 262144 Invalid Blocks : 0
Heartbeat CPU 2 instructions: 360000000 cycles: 707389585 heartbeat IPC: 0.249198 cumulative IPC: 0.268162 (Simulation time: 122 hr 51 min 13 sec) 
 Total Blocks : 262144 Invalid Blocks : 0
Heartbeat CPU 5 instructions: 370000000 cycles: 737841434 heartbeat IPC: 0.31888 cumulative IPC: 0.271069 (Simulation time: 126 hr 18 min 30 sec) 
 Total Blocks : 262144 Invalid Blocks : 0
Heartbeat CPU 1 instructions: 370000000 cycles: 737842235 heartbeat IPC: 0.31821 cumulative IPC: 0.271053 (Simulation time: 126 hr 18 min 30 sec) 
 Total Blocks : 262144 Invalid Blocks : 0
Heartbeat CPU 7 instructions: 370000000 cycles: 737853295 heartbeat IPC: 0.323072 cumulative IPC: 0.271051 (Simulation time: 126 hr 18 min 30 sec) 
 Total Blocks : 262144 Invalid Blocks : 0
Heartbeat CPU 4 instructions: 370000000 cycles: 738173285 heartbeat IPC: 0.319113 cumulative IPC: 0.270922 (Simulation time: 126 hr 18 min 38 sec) 
 Total Blocks : 262144 Invalid Blocks : 0
Heartbeat CPU 3 instructions: 370000000 cycles: 738441880 heartbeat IPC: 0.315977 cumulative IPC: 0.270761 (Simulation time: 126 hr 18 min 46 sec) 
 Total Blocks : 262144 Invalid Blocks : 0
Heartbeat CPU 0 instructions: 370000000 cycles: 738561348 heartbeat IPC: 0.316004 cumulative IPC: 0.27071 (Simulation time: 126 hr 18 min 50 sec) 
 Total Blocks : 262144 Invalid Blocks : 0
Heartbeat CPU 6 instructions: 370000000 cycles: 738851904 heartbeat IPC: 0.317263 cumulative IPC: 0.270669 (Simulation time: 126 hr 18 min 58 sec) 
 Total Blocks : 262144 Invalid Blocks : 0
Heartbeat CPU 2 instructions: 370000000 cycles: 738911018 heartbeat IPC: 0.317244 cumulative IPC: 0.270625 (Simulation time: 126 hr 19 min 0 sec) 
 Total Blocks : 262144 Invalid Blocks : 0
Heartbeat CPU 5 instructions: 380000003 cycles: 777055048 heartbeat IPC: 0.255014 cumulative IPC: 0.270124 (Simulation time: 128 hr 13 min 3 sec) 
 Total Blocks : 262144 Invalid Blocks : 0
Heartbeat CPU 1 instructions: 380000003 cycles: 777080632 heartbeat IPC: 0.254852 cumulative IPC: 0.270099 (Simulation time: 128 hr 13 min 9 sec) 
 Total Blocks : 262144 Invalid Blocks : 0
Heartbeat CPU 7 instructions: 380000003 cycles: 777665679 heartbeat IPC: 0.251178 cumulative IPC: 0.269865 (Simulation time: 128 hr 15 min 9 sec) 
 Total Blocks : 262144 Invalid Blocks : 0
Heartbeat CPU 4 instructions: 380000003 cycles: 777786680 heartbeat IPC: 0.25244 cumulative IPC: 0.269825 (Simulation time: 128 hr 15 min 33 sec) 
 Total Blocks : 262144 Invalid Blocks : 0
Heartbeat CPU 0 instructions: 380000003 cycles: 777837292 heartbeat IPC: 0.254609 cumulative IPC: 0.269762 (Simulation time: 128 hr 15 min 43 sec) 
 Total Blocks : 262144 Invalid Blocks : 0
Heartbeat CPU 3 instructions: 380000003 cycles: 777882078 heartbeat IPC: 0.253549 cumulative IPC: 0.269744 (Simulation time: 128 hr 15 min 53 sec) 
 Total Blocks : 262144 Invalid Blocks : 0
Heartbeat CPU 6 instructions: 380000003 cycles: 778021813 heartbeat IPC: 0.255298 cumulative IPC: 0.269767 (Simulation time: 128 hr 16 min 22 sec) 
 Total Blocks : 262144 Invalid Blocks : 0
Heartbeat CPU 2 instructions: 380000003 cycles: 778074031 heartbeat IPC: 0.255343 cumulative IPC: 0.269728 (Simulation time: 128 hr 16 min 31 sec) 
 Total Blocks : 262144 Invalid Blocks : 0
Heartbeat CPU 5 instructions: 390000001 cycles: 807812242 heartbeat IPC: 0.325127 cumulative IPC: 0.272551 (Simulation time: 131 hr 56 min 31 sec) 
 Total Blocks : 262144 Invalid Blocks : 0
Heartbeat CPU 1 instructions: 390000001 cycles: 807953234 heartbeat IPC: 0.323912 cumulative IPC: 0.272482 (Simulation time: 131 hr 57 min 55 sec) 
 Total Blocks : 262144 Invalid Blocks : 0
Heartbeat CPU 7 instructions: 390000001 cycles: 808590080 heartbeat IPC: 0.323369 cumulative IPC: 0.272236 (Simulation time: 132 hr 3 min 56 sec) 
 Total Blocks : 262144 Invalid Blocks : 0
Heartbeat CPU 4 instructions: 390000001 cycles: 808692202 heartbeat IPC: 0.323567 cumulative IPC: 0.272205 (Simulation time: 132 hr 4 min 42 sec) 
 Total Blocks : 262144 Invalid Blocks : 0
Heartbeat CPU 0 instructions: 390000001 cycles: 808714136 heartbeat IPC: 0.323867 cumulative IPC: 0.272156 (Simulation time: 132 hr 4 min 52 sec) 
 Total Blocks : 262144 Invalid Blocks : 0
Heartbeat CPU 3 instructions: 390000001 cycles: 808852687 heartbeat IPC: 0.322887 cumulative IPC: 0.272101 (Simulation time: 132 hr 5 min 54 sec) 
 Total Blocks : 262144 Invalid Blocks : 0
Heartbeat CPU 6 instructions: 390000001 cycles: 808926112 heartbeat IPC: 0.32358 cumulative IPC: 0.272149 (Simulation time: 132 hr 6 min 25 sec) 
 Total Blocks : 262144 Invalid Blocks : 0
Heartbeat CPU 2 instructions: 390000001 cycles: 808979361 heartbeat IPC: 0.323569 cumulative IPC: 0.272111 (Simulation time: 132 hr 6 min 48 sec) 
 Total Blocks : 262144 Invalid Blocks : 0
Heartbeat CPU 5 instructions: 400000000 cycles: 845649864 heartbeat IPC: 0.264287 cumulative IPC: 0.272126 (Simulation time: 135 hr 3 min 53 sec) 
 Total Blocks : 262144 Invalid Blocks : 0
Finished CPU 5 instructions: 200000002 cycles: 735156842 cumulative IPC: 0.272051 (Simulation time: 135 hr 4 min 42 sec) 
Heartbeat CPU 1 instructions: 400000000 cycles: 845965383 heartbeat IPC: 0.263074 cumulative IPC: 0.271996 (Simulation time: 135 hr 4 min 46 sec) 
 Total Blocks : 262144 Invalid Blocks : 0
Heartbeat CPU 0 instructions: 400000000 cycles: 846264133 heartbeat IPC: 0.266312 cumulative IPC: 0.271857 (Simulation time: 135 hr 5 min 35 sec) 
 Total Blocks : 262144 Invalid Blocks : 0
Heartbeat CPU 7 instructions: 400000000 cycles: 846289687 heartbeat IPC: 0.265255 cumulative IPC: 0.271878 (Simulation time: 135 hr 5 min 38 sec) 
 Total Blocks : 262144 Invalid Blocks : 0
Finished CPU 1 instructions: 200000001 cycles: 735591871 cumulative IPC: 0.27189 (Simulation time: 135 hr 5 min 51 sec) 
Heartbeat CPU 4 instructions: 400000000 cycles: 846587635 heartbeat IPC: 0.263884 cumulative IPC: 0.271776 (Simulation time: 135 hr 6 min 22 sec) 
 Total Blocks : 262144 Invalid Blocks : 0
Finished CPU 7 instructions: 200000000 cycles: 735874745 cumulative IPC: 0.271785 (Simulation time: 135 hr 6 min 29 sec) 
Heartbeat CPU 6 instructions: 400000000 cycles: 846676405 heartbeat IPC: 0.264899 cumulative IPC: 0.271777 (Simulation time: 135 hr 6 min 31 sec) 
 Total Blocks : 262144 Invalid Blocks : 0
Finished CPU 6 instructions: 200000000 cycles: 735896923 cumulative IPC: 0.271777 (Simulation time: 135 hr 6 min 31 sec) 
Heartbeat CPU 3 instructions: 400000000 cycles: 846695584 heartbeat IPC: 0.26425 cumulative IPC: 0.271698 (Simulation time: 135 hr 6 min 33 sec) 
 Total Blocks : 262144 Invalid Blocks : 0
Finished CPU 4 instructions: 200000000 cycles: 736109847 cumulative IPC: 0.271699 (Simulation time: 135 hr 6 min 48 sec) 
Finished CPU 0 instructions: 200000000 cycles: 736111651 cumulative IPC: 0.271698 (Simulation time: 135 hr 6 min 48 sec) 
Heartbeat CPU 2 instructions: 400000000 cycles: 847060914 heartbeat IPC: 0.262594 cumulative IPC: 0.271619 (Simulation time: 135 hr 6 min 59 sec) 
 Total Blocks : 262144 Invalid Blocks : 0
Finished CPU 2 instructions: 200000000 cycles: 736414422 cumulative IPC: 0.271586 (Simulation time: 135 hr 7 min 5 sec) 
Finished CPU 3 instructions: 200000000 cycles: 736551544 cumulative IPC: 0.271536 (Simulation time: 135 hr 7 min 9 sec) 

CPU 0 Branch Prediction Accuracy: 98.1354% MPKI: 1.8498 Average ROB Occupancy at Mispredict: 220.324

CPU 1 Branch Prediction Accuracy: 98.1359% MPKI: 1.84985 Average ROB Occupancy at Mispredict: 220.338

CPU 2 Branch Prediction Accuracy: 98.1357% MPKI: 1.84983 Average ROB Occupancy at Mispredict: 220.363

CPU 3 Branch Prediction Accuracy: 98.1351% MPKI: 1.84989 Average ROB Occupancy at Mispredict: 220.319

CPU 4 Branch Prediction Accuracy: 98.1354% MPKI: 1.85006 Average ROB Occupancy at Mispredict: 220.333

CPU 5 Branch Prediction Accuracy: 98.1363% MPKI: 1.84978 Average ROB Occupancy at Mispredict: 220.345

CPU 6 Branch Prediction Accuracy: 98.1357% MPKI: 1.85023 Average ROB Occupancy at Mispredict: 220.334

CPU 7 Branch Prediction Accuracy: 98.1356% MPKI: 1.84995 Average ROB Occupancy at Mispredict: 220.338

ChampSim completed all CPUs

Total Simulation Statistics (not including warmup)

CPU 0 cumulative IPC: 0.271575 instructions: 200028940 cycles: 736551544
ITLB TOTAL     ACCESS: 45242443  HIT: 45242443  MISS:     0  HIT %:   100  MISS %:     0  AVERAGE MISS PENALTY: 0
ITLB LOAD      ACCESS: 45242443  HIT: 45242443  MISS:     0  HIT %:   100  MISS %:     0  AVERAGE MISS PENALTY: 0
ITLB RFO       ACCESS:     0  HIT:     0  MISS:     0  HIT %:     0  MISS %:     0  AVERAGE MISS PENALTY: 0
ITLB PREFETCH  ACCESS:     0  HIT:     0  MISS:     0  HIT %:     0  MISS %:     0  AVERAGE MISS PENALTY: 0
ITLB WRITEBACK ACCESS:     0  HIT:     0  MISS:     0  HIT %:     0  MISS %:     0  AVERAGE MISS PENALTY: 0

DTLB TOTAL     ACCESS: 63267859  HIT: 62528657  MISS: 739202  HIT %: 98.8316  MISS %: 1.16837  AVERAGE MISS PENALTY: 29.7188
DTLB LOAD      ACCESS: 40978111  HIT: 40260180  MISS: 717931  HIT %: 98.248  MISS %: 1.75199  AVERAGE MISS PENALTY: 29.2241
DTLB RFO       ACCESS: 22289748  HIT: 22268477  MISS: 21271  HIT %: 99.9046  MISS %: 0.0954295  AVERAGE MISS PENALTY: 46.4155
DTLB PREFETCH  ACCESS:     0  HIT:     0  MISS:     0  HIT %:     0  MISS %:     0  AVERAGE MISS PENALTY: 0
DTLB WRITEBACK ACCESS:     0  HIT:     0  MISS:     0  HIT %:     0  MISS %:     0  AVERAGE MISS PENALTY: 0

STLB TOTAL     ACCESS: 739202  HIT: 587175  MISS: 152027  HIT %: 79.4336  MISS %: 20.5664  AVERAGE MISS PENALTY: 100
STLB LOAD      ACCESS: 717931  HIT: 573482  MISS: 144449  HIT %: 79.8798  MISS %: 20.1202  AVERAGE MISS PENALTY: 100
STLB RFO       ACCESS: 21271  HIT: 13693  MISS:  7578  HIT %: 64.374  MISS %: 35.626  AVERAGE MISS PENALTY: 100
STLB PREFETCH  ACCESS:     0  HIT:     0  MISS:     0  HIT %:     0  MISS %:     0  AVERAGE MISS PENALTY: 0
STLB WRITEBACK ACCESS:     0  HIT:     0  MISS:     0  HIT %:     0  MISS %:     0  AVERAGE MISS PENALTY: 0

L1D TOTAL     ACCESS: 118573848  HIT: 111787975  MISS: 6785873  HIT %: 94.2771  MISS %: 5.72291  AVERAGE MISS PENALTY: 7.28598e+07
L1D LOAD      ACCESS: 40727082  HIT: 37869832  MISS: 2857250  HIT %: 92.9844  MISS %: 7.0156  AVERAGE MISS PENALTY: 1.70845e+08
L1D RFO       ACCESS: 55521824  HIT: 55080329  MISS: 441495  HIT %: 99.2048  MISS %: 0.795174  AVERAGE MISS PENALTY: 1.42012e+07
L1D PREFETCH  ACCESS: 22324942  HIT: 18837814  MISS: 3487128  HIT %: 84.3801  MISS %: 15.6199  AVERAGE MISS PENALTY: 366.147
L1D WRITEBACK ACCESS:     0  HIT:     0  MISS:     0  HIT %:     0  MISS %:     0  AVERAGE MISS PENALTY: 0

L1I TOTAL     ACCESS: 56981015  HIT: 56981015  MISS:     0  HIT %:   100  MISS %:     0  AVERAGE MISS PENALTY: 0
L1I LOAD      ACCESS: 56981015  HIT: 56981015  MISS:     0  HIT %:   100  MISS %:     0  AVERAGE MISS PENALTY: 0
L1I RFO       ACCESS:     0  HIT:     0  MISS:     0  HIT %:     0  MISS %:     0  AVERAGE MISS PENALTY: 0
L1I PREFETCH  ACCESS:     0  HIT:     0  MISS:     0  HIT %:     0  MISS %:     0  AVERAGE MISS PENALTY: 0
L1I WRITEBACK ACCESS:     0  HIT:     0  MISS:     0  HIT %:     0  MISS %:     0  AVERAGE MISS PENALTY: 0

L2C TOTAL     ACCESS: 9170942  HIT: 2918372  MISS: 6252570  HIT %: 31.8219  MISS %: 68.1781  AVERAGE MISS PENALTY: 7.02754e+07
L2C LOAD      ACCESS: 2821532  HIT: 218096  MISS: 2603436  HIT %: 7.7297  MISS %: 92.2703  AVERAGE MISS PENALTY: 1.68694e+08
L2C RFO       ACCESS: 428303  HIT:  4750  MISS: 423553  HIT %: 1.10903  MISS %: 98.891  AVERAGE MISS PENALTY: 511160
L2C PREFETCH  ACCESS: 4615521  HIT: 1397415  MISS: 3218106  HIT %: 30.2764  MISS %: 69.7236  AVERAGE MISS PENALTY: 459.044
L2C WRITEBACK ACCESS: 1305586  HIT: 1298111  MISS:  7475  HIT %: 99.4275  MISS %: 0.57254  AVERAGE MISS PENALTY: 0


LLC0 TOTAL     ACCESS: 921308  HIT: 133466  MISS: 787842  HIT %: 14.4866  MISS %: 85.5134  AVERAGE MISS PENALTY: 469.542
LLC0 LOAD      ACCESS: 216706  HIT:  4802  MISS: 211904  HIT %: 2.21591  MISS %: 97.7841  AVERAGE MISS PENALTY: 510.931
LLC0 RFO       ACCESS: 53865  HIT:     9  MISS: 53856  HIT %: 0.0167084  MISS %: 99.9833  AVERAGE MISS PENALTY: 409.405
LLC0 PREFETCH  ACCESS: 498334  HIT: 15575  MISS: 482759  HIT %: 3.12541  MISS %: 96.8746  AVERAGE MISS PENALTY: 496.33
LLC0 WRITEBACK ACCESS: 152403  HIT: 113080  MISS: 39323  HIT %: 74.198  MISS %: 25.802  AVERAGE MISS PENALTY: 0

LLC1 TOTAL     ACCESS: 936350  HIT: 133444  MISS: 802906  HIT %: 14.2515  MISS %: 85.7485  AVERAGE MISS PENALTY: 476.535
LLC1 LOAD      ACCESS: 216032  HIT:  4625  MISS: 211407  HIT %: 2.14089  MISS %: 97.8591  AVERAGE MISS PENALTY: 524.505
LLC1 RFO       ACCESS: 52916  HIT:    50  MISS: 52866  HIT %: 0.0944894  MISS %: 99.9055  AVERAGE MISS PENALTY: 420.064
LLC1 PREFETCH  ACCESS: 515882  HIT: 15223  MISS: 500659  HIT %: 2.95087  MISS %: 97.0491  AVERAGE MISS PENALTY: 498.386
LLC1 WRITEBACK ACCESS: 151520  HIT: 113546  MISS: 37974  HIT %: 74.938  MISS %: 25.062  AVERAGE MISS PENALTY: 0

LLC2 TOTAL     ACCESS: 941724  HIT: 134064  MISS: 807660  HIT %: 14.236  MISS %: 85.764  AVERAGE MISS PENALTY: 467.771
LLC2 LOAD      ACCESS: 208428  HIT:  4431  MISS: 203997  HIT %: 2.12591  MISS %: 97.8741  AVERAGE MISS PENALTY: 518.924
LLC2 RFO       ACCESS: 52722  HIT:    11  MISS: 52711  HIT %: 0.0208642  MISS %: 99.9791  AVERAGE MISS PENALTY: 415.349
LLC2 PREFETCH  ACCESS: 529073  HIT: 15717  MISS: 513356  HIT %: 2.97067  MISS %: 97.0293  AVERAGE MISS PENALTY: 487.084
LLC2 WRITEBACK ACCESS: 151501  HIT: 113905  MISS: 37596  HIT %: 75.1843  MISS %: 24.8157  AVERAGE MISS PENALTY: 0

LLC3 TOTAL     ACCESS: 934799  HIT: 133989  MISS: 800810  HIT %: 14.3335  MISS %: 85.6665  AVERAGE MISS PENALTY: 473.125
LLC3 LOAD      ACCESS: 218810  HIT:  4562  MISS: 214248  HIT %: 2.08491  MISS %: 97.9151  AVERAGE MISS PENALTY: 513.22
LLC3 RFO       ACCESS: 52725  HIT:    12  MISS: 52713  HIT %: 0.0227596  MISS %: 99.9772  AVERAGE MISS PENALTY: 424.551
LLC3 PREFETCH  ACCESS: 512212  HIT: 15609  MISS: 496603  HIT %: 3.04737  MISS %: 96.9526  AVERAGE MISS PENALTY: 496.469
LLC3 WRITEBACK ACCESS: 151052  HIT: 113806  MISS: 37246  HIT %: 75.3423  MISS %: 24.6577  AVERAGE MISS PENALTY: 0

LLC4 TOTAL     ACCESS: 931721  HIT: 134771  MISS: 796950  HIT %: 14.4647  MISS %: 85.5353  AVERAGE MISS PENALTY: 479.767
LLC4 LOAD      ACCESS: 216677  HIT:  4704  MISS: 211973  HIT %: 2.17097  MISS %: 97.829  AVERAGE MISS PENALTY: 531.438
LLC4 RFO       ACCESS: 52729  HIT:    20  MISS: 52709  HIT %: 0.0379298  MISS %: 99.9621  AVERAGE MISS PENALTY: 415.513
LLC4 PREFETCH  ACCESS: 510536  HIT: 15430  MISS: 495106  HIT %: 3.02231  MISS %: 96.9777  AVERAGE MISS PENALTY: 500.496
LLC4 WRITEBACK ACCESS: 151779  HIT: 114617  MISS: 37162  HIT %: 75.5157  MISS %: 24.4843  AVERAGE MISS PENALTY: 0

LLC5 TOTAL     ACCESS: 931835  HIT: 134346  MISS: 797489  HIT %: 14.4174  MISS %: 85.5826  AVERAGE MISS PENALTY: 463.367
LLC5 LOAD      ACCESS: 231814  HIT:  4906  MISS: 226908  HIT %: 2.11635  MISS %: 97.8836  AVERAGE MISS PENALTY: 506.136
LLC5 RFO       ACCESS: 52742  HIT:    22  MISS: 52720  HIT %: 0.0417125  MISS %: 99.9583  AVERAGE MISS PENALTY: 409.123
LLC5 PREFETCH  ACCESS: 496541  HIT: 15539  MISS: 481002  HIT %: 3.12945  MISS %: 96.8706  AVERAGE MISS PENALTY: 484.644
LLC5 WRITEBACK ACCESS: 150738  HIT: 113879  MISS: 36859  HIT %: 75.5476  MISS %: 24.4524  AVERAGE MISS PENALTY: 0

LLC6 TOTAL     ACCESS: 932089  HIT: 133555  MISS: 798534  HIT %: 14.3286  MISS %: 85.6714  AVERAGE MISS PENALTY: 473.285
LLC6 LOAD      ACCESS: 234750  HIT:  5128  MISS: 229622  HIT %: 2.18445  MISS %: 97.8155  AVERAGE MISS PENALTY: 528.362
LLC6 RFO       ACCESS: 52688  HIT:    21  MISS: 52667  HIT %: 0.0398573  MISS %: 99.9601  AVERAGE MISS PENALTY: 418.445
LLC6 PREFETCH  ACCESS: 493270  HIT: 15521  MISS: 477749  HIT %: 3.14655  MISS %: 96.8534  AVERAGE MISS PENALTY: 490.995
LLC6 WRITEBACK ACCESS: 151381  HIT: 112885  MISS: 38496  HIT %: 74.5701  MISS %: 25.4299  AVERAGE MISS PENALTY: 0

LLC7 TOTAL     ACCESS: 927099  HIT: 130095  MISS: 797004  HIT %: 14.0325  MISS %: 85.9675  AVERAGE MISS PENALTY: 458.227
LLC7 LOAD      ACCESS: 254737  HIT:  5755  MISS: 248982  HIT %: 2.25919  MISS %: 97.7408  AVERAGE MISS PENALTY: 500.53
LLC7 RFO       ACCESS: 52712  HIT:    28  MISS: 52684  HIT %: 0.0531188  MISS %: 99.9469  AVERAGE MISS PENALTY: 409.468
LLC7 PREFETCH  ACCESS: 468193  HIT: 14967  MISS: 453226  HIT %: 3.19676  MISS %: 96.8032  AVERAGE MISS PENALTY: 483.233
LLC7 WRITEBACK ACCESS: 151457  HIT: 109345  MISS: 42112  HIT %: 72.1954  MISS %: 27.8046  AVERAGE MISS PENALTY: 0

Total Rob stall cycles : 	704689596
Total Load Rob Stall cycles : 	401298842
Average Rob Stall cycles : 	 11
Average Load Rob Stall cycles : 	 38

CPU 1 cumulative IPC: 0.271629 instructions: 200068531 cycles: 736551544
ITLB TOTAL     ACCESS: 45251834  HIT: 45251834  MISS:     0  HIT %:   100  MISS %:     0  AVERAGE MISS PENALTY: 0
ITLB LOAD      ACCESS: 45251834  HIT: 45251834  MISS:     0  HIT %:   100  MISS %:     0  AVERAGE MISS PENALTY: 0
ITLB RFO       ACCESS:     0  HIT:     0  MISS:     0  HIT %:     0  MISS %:     0  AVERAGE MISS PENALTY: 0
ITLB PREFETCH  ACCESS:     0  HIT:     0  MISS:     0  HIT %:     0  MISS %:     0  AVERAGE MISS PENALTY: 0
ITLB WRITEBACK ACCESS:     0  HIT:     0  MISS:     0  HIT %:     0  MISS %:     0  AVERAGE MISS PENALTY: 0

DTLB TOTAL     ACCESS: 63283586  HIT: 62544297  MISS: 739289  HIT %: 98.8318  MISS %: 1.16822  AVERAGE MISS PENALTY: 29.747
DTLB LOAD      ACCESS: 40991243  HIT: 40273211  MISS: 718032  HIT %: 98.2483  MISS %: 1.75167  AVERAGE MISS PENALTY: 29.2498
DTLB RFO       ACCESS: 22292343  HIT: 22271086  MISS: 21257  HIT %: 99.9046  MISS %: 0.0953556  AVERAGE MISS PENALTY: 46.5431
DTLB PREFETCH  ACCESS:     0  HIT:     0  MISS:     0  HIT %:     0  MISS %:     0  AVERAGE MISS PENALTY: 0
DTLB WRITEBACK ACCESS:     0  HIT:     0  MISS:     0  HIT %:     0  MISS %:     0  AVERAGE MISS PENALTY: 0

STLB TOTAL     ACCESS: 739289  HIT: 587105  MISS: 152184  HIT %: 79.4148  MISS %: 20.5852  AVERAGE MISS PENALTY: 100
STLB LOAD      ACCESS: 718032  HIT: 573426  MISS: 144606  HIT %: 79.8608  MISS %: 20.1392  AVERAGE MISS PENALTY: 100
STLB RFO       ACCESS: 21257  HIT: 13679  MISS:  7578  HIT %: 64.3506  MISS %: 35.6494  AVERAGE MISS PENALTY: 100
STLB PREFETCH  ACCESS:     0  HIT:     0  MISS:     0  HIT %:     0  MISS %:     0  AVERAGE MISS PENALTY: 0
STLB WRITEBACK ACCESS:     0  HIT:     0  MISS:     0  HIT %:     0  MISS %:     0  AVERAGE MISS PENALTY: 0

L1D TOTAL     ACCESS: 118573955  HIT: 111781530  MISS: 6792425  HIT %: 94.2716  MISS %: 5.72843  AVERAGE MISS PENALTY: 7.25365e+07
L1D LOAD      ACCESS: 40739187  HIT: 37878800  MISS: 2860387  HIT %: 92.9788  MISS %: 7.02122  AVERAGE MISS PENALTY: 1.70057e+08
L1D RFO       ACCESS: 55522839  HIT: 55081303  MISS: 441536  HIT %: 99.2048  MISS %: 0.795233  AVERAGE MISS PENALTY: 1.41986e+07
L1D PREFETCH  ACCESS: 22311929  HIT: 18821427  MISS: 3490502  HIT %: 84.3559  MISS %: 15.6441  AVERAGE MISS PENALTY: 333.101
L1D WRITEBACK ACCESS:     0  HIT:     0  MISS:     0  HIT %:     0  MISS %:     0  AVERAGE MISS PENALTY: 0

L1I TOTAL     ACCESS: 56993664  HIT: 56993664  MISS:     0  HIT %:   100  MISS %:     0  AVERAGE MISS PENALTY: 0
L1I LOAD      ACCESS: 56993664  HIT: 56993664  MISS:     0  HIT %:   100  MISS %:     0  AVERAGE MISS PENALTY: 0
L1I RFO       ACCESS:     0  HIT:     0  MISS:     0  HIT %:     0  MISS %:     0  AVERAGE MISS PENALTY: 0
L1I PREFETCH  ACCESS:     0  HIT:     0  MISS:     0  HIT %:     0  MISS %:     0  AVERAGE MISS PENALTY: 0
L1I WRITEBACK ACCESS:     0  HIT:     0  MISS:     0  HIT %:     0  MISS %:     0  AVERAGE MISS PENALTY: 0

L2C TOTAL     ACCESS: 9177070  HIT: 2934032  MISS: 6243038  HIT %: 31.9713  MISS %: 68.0287  AVERAGE MISS PENALTY: 7.00697e+07
L2C LOAD      ACCESS: 2824553  HIT: 218699  MISS: 2605854  HIT %: 7.74278  MISS %: 92.2572  AVERAGE MISS PENALTY: 1.67788e+08
L2C RFO       ACCESS: 428328  HIT:  4716  MISS: 423612  HIT %: 1.10103  MISS %: 98.899  AVERAGE MISS PENALTY: 505964
L2C PREFETCH  ACCESS: 4618488  HIT: 1411060  MISS: 3207428  HIT %: 30.5524  MISS %: 69.4476  AVERAGE MISS PENALTY: 458.823
L2C WRITEBACK ACCESS: 1305701  HIT: 1299557  MISS:  6144  HIT %: 99.5294  MISS %: 0.470552  AVERAGE MISS PENALTY: 0


LLC0 TOTAL     ACCESS: 920257  HIT: 132879  MISS: 787378  HIT %: 14.4393  MISS %: 85.5607  AVERAGE MISS PENALTY: 469.587
LLC0 LOAD      ACCESS: 217151  HIT:  4663  MISS: 212488  HIT %: 2.14735  MISS %: 97.8526  AVERAGE MISS PENALTY: 511.039
LLC0 RFO       ACCESS: 53879  HIT:    17  MISS: 53862  HIT %: 0.0315522  MISS %: 99.9684  AVERAGE MISS PENALTY: 406.906
LLC0 PREFETCH  ACCESS: 497141  HIT: 14307  MISS: 482834  HIT %: 2.87786  MISS %: 97.1221  AVERAGE MISS PENALTY: 495.483
LLC0 WRITEBACK ACCESS: 152086  HIT: 113892  MISS: 38194  HIT %: 74.8866  MISS %: 25.1134  AVERAGE MISS PENALTY: 0

LLC1 TOTAL     ACCESS: 935107  HIT: 133188  MISS: 801919  HIT %: 14.2431  MISS %: 85.7569  AVERAGE MISS PENALTY: 476.516
LLC1 LOAD      ACCESS: 216694  HIT:  4648  MISS: 212046  HIT %: 2.14496  MISS %: 97.855  AVERAGE MISS PENALTY: 526.134
LLC1 RFO       ACCESS: 52916  HIT:    41  MISS: 52875  HIT %: 0.0774813  MISS %: 99.9225  AVERAGE MISS PENALTY: 417.055
LLC1 PREFETCH  ACCESS: 514169  HIT: 13824  MISS: 500345  HIT %: 2.68861  MISS %: 97.3114  AVERAGE MISS PENALTY: 496.679
LLC1 WRITEBACK ACCESS: 151328  HIT: 114675  MISS: 36653  HIT %: 75.7791  MISS %: 24.2209  AVERAGE MISS PENALTY: 0

LLC2 TOTAL     ACCESS: 940566  HIT: 133743  MISS: 806823  HIT %: 14.2194  MISS %: 85.7806  AVERAGE MISS PENALTY: 466.798
LLC2 LOAD      ACCESS: 209374  HIT:  4419  MISS: 204955  HIT %: 2.11058  MISS %: 97.8894  AVERAGE MISS PENALTY: 518.885
LLC2 RFO       ACCESS: 52737  HIT:    18  MISS: 52719  HIT %: 0.0341316  MISS %: 99.9659  AVERAGE MISS PENALTY: 413.969
LLC2 PREFETCH  ACCESS: 526973  HIT: 14270  MISS: 512703  HIT %: 2.70792  MISS %: 97.2921  AVERAGE MISS PENALTY: 484.591
LLC2 WRITEBACK ACCESS: 151482  HIT: 115036  MISS: 36446  HIT %: 75.9404  MISS %: 24.0596  AVERAGE MISS PENALTY: 0

LLC3 TOTAL     ACCESS: 933261  HIT: 133363  MISS: 799898  HIT %: 14.29  MISS %: 85.71  AVERAGE MISS PENALTY: 472.791
LLC3 LOAD      ACCESS: 219182  HIT:  4470  MISS: 214712  HIT %: 2.0394  MISS %: 97.9606  AVERAGE MISS PENALTY: 514.743
LLC3 RFO       ACCESS: 52752  HIT:    13  MISS: 52739  HIT %: 0.0246436  MISS %: 99.9754  AVERAGE MISS PENALTY: 419.104
[...]
LLC1 AVERAGE MISS LATENCY: 474.162 cycles
LLC2 TOTAL     ACCESS: 941791  HIT: 129470  MISS: 812321  HIT %: 13.7472  MISS %: 86.2528  AVERAGE MISS PENALTY: 465.024
LLC2 LOAD      ACCESS: 208004  HIT:  4176  MISS: 203828  HIT %: 2.00765  MISS %: 97.9923  AVERAGE MISS PENALTY: 511.041
LLC2 RFO       ACCESS: 52680  HIT:    11  MISS: 52669  HIT %: 0.0208808  MISS %: 99.9791  AVERAGE MISS PENALTY: 427.188
LLC2 PREFETCH  ACCESS: 529619  HIT: 14421  MISS: 515198  HIT %: 2.7229  MISS %: 97.2771  AVERAGE MISS PENALTY: 487.355
LLC2 WRITEBACK ACCESS: 151488  HIT: 110862  MISS: 40626  HIT %: 73.182  MISS %: 26.818  AVERAGE MISS PENALTY: 0
LLC2 PREFETCH  REQUESTED:     0  ISSUED:     0  USEFUL: 12918  USELESS: 4104439
 USEFUL LOAD PREFETCHES:      12918 PREFETCH ISSUED TO LOWER LEVEL:    4117408  ACCURACY: 0.313741
 TIMELY PREFETCHES:      12918 LATE PREFETCHES: 0 DROPPED PREFETCHES: 0
LLC2 AVERAGE MISS LATENCY: 465.024 cycles
LLC3 TOTAL     ACCESS: 934458  HIT: 129148  MISS: 805310  HIT %: 13.8206  MISS %: 86.1794  AVERAGE MISS PENALTY: 471.314
LLC3 LOAD      ACCESS: 218869  HIT:  4198  MISS: 214671  HIT %: 1.91804  MISS %: 98.082  AVERAGE MISS PENALTY: 507.374
LLC3 RFO       ACCESS: 52703  HIT:    12  MISS: 52691  HIT %: 0.0227691  MISS %: 99.9772  AVERAGE MISS PENALTY: 435.725
LLC3 PREFETCH  ACCESS: 511972  HIT: 14360  MISS: 497612  HIT %: 2.80484  MISS %: 97.1952  AVERAGE MISS PENALTY: 497.731
LLC3 WRITEBACK ACCESS: 150914  HIT: 110578  MISS: 40336  HIT %: 73.2722  MISS %: 26.7278  AVERAGE MISS PENALTY: 0
LLC3 PREFETCH  REQUESTED:     0  ISSUED:     0  USEFUL: 13032  USELESS: 3968810
 USEFUL LOAD PREFETCHES:      13032 PREFETCH ISSUED TO LOWER LEVEL:    3982724  ACCURACY: 0.327213
 TIMELY PREFETCHES:      13032 LATE PREFETCHES: 0 DROPPED PREFETCHES: 0
LLC3 AVERAGE MISS LATENCY: 471.314 cycles
LLC4 TOTAL     ACCESS: 931275  HIT: 130003  MISS: 801272  HIT %: 13.9597  MISS %: 86.0403  AVERAGE MISS PENALTY: 477.608
LLC4 LOAD      ACCESS: 216561  HIT:  4253  MISS: 212308  HIT %: 1.96388  MISS %: 98.0361  AVERAGE MISS PENALTY: 526.256
LLC4 RFO       ACCESS: 52694  HIT:    18  MISS: 52676  HIT %: 0.0341595  MISS %: 99.9658  AVERAGE MISS PENALTY: 428.398
LLC4 PREFETCH  ACCESS: 510448  HIT: 14332  MISS: 496116  HIT %: 2.80773  MISS %: 97.1923  AVERAGE MISS PENALTY: 500.688
LLC4 WRITEBACK ACCESS: 151572  HIT: 111400  MISS: 40172  HIT %: 73.4964  MISS %: 26.5036  AVERAGE MISS PENALTY: 0
LLC4 PREFETCH  REQUESTED:     0  ISSUED:     0  USEFUL: 12891  USELESS: 3955214
 USEFUL LOAD PREFETCHES:      12891 PREFETCH ISSUED TO LOWER LEVEL:    3966173  ACCURACY: 0.325024
 TIMELY PREFETCHES:      12891 LATE PREFETCHES: 0 DROPPED PREFETCHES: 0
LLC4 AVERAGE MISS LATENCY: 477.608 cycles
LLC5 TOTAL     ACCESS: 931481  HIT: 129605  MISS: 801876  HIT %: 13.9139  MISS %: 86.0861  AVERAGE MISS PENALTY: 460.668
LLC5 LOAD      ACCESS: 231876  HIT:  4598  MISS: 227278  HIT %: 1.98296  MISS %: 98.017  AVERAGE MISS PENALTY: 499.339
LLC5 RFO       ACCESS: 52704  HIT:    18  MISS: 52686  HIT %: 0.034153  MISS %: 99.9658  AVERAGE MISS PENALTY: 422.501
LLC5 PREFETCH  ACCESS: 496184  HIT: 14281  MISS: 481903  HIT %: 2.87817  MISS %: 97.1218  AVERAGE MISS PENALTY: 484.849
LLC5 WRITEBACK ACCESS: 150717  HIT: 110708  MISS: 40009  HIT %: 73.4542  MISS %: 26.5458  AVERAGE MISS PENALTY: 0
LLC5 PREFETCH  REQUESTED:     0  ISSUED:     0  USEFUL: 13018  USELESS: 3841628
 USEFUL LOAD PREFETCHES:      13018 PREFETCH ISSUED TO LOWER LEVEL:    3857106  ACCURACY: 0.337507
 TIMELY PREFETCHES:      13018 LATE PREFETCHES: 0 DROPPED PREFETCHES: 0
LLC5 AVERAGE MISS LATENCY: 460.668 cycles
LLC6 TOTAL     ACCESS: 932234  HIT: 128864  MISS: 803370  HIT %: 13.8231  MISS %: 86.1769  AVERAGE MISS PENALTY: 470.638
LLC6 LOAD      ACCESS: 234796  HIT:  4955  MISS: 229841  HIT %: 2.11034  MISS %: 97.8897  AVERAGE MISS PENALTY: 522.419
LLC6 RFO       ACCESS: 52656  HIT:    22  MISS: 52634  HIT %: 0.0417806  MISS %: 99.9582  AVERAGE MISS PENALTY: 431.413
LLC6 PREFETCH  ACCESS: 493467  HIT: 14372  MISS: 479095  HIT %: 2.91245  MISS %: 97.0875  AVERAGE MISS PENALTY: 491.168
LLC6 WRITEBACK ACCESS: 151315  HIT: 109515  MISS: 41800  HIT %: 72.3755  MISS %: 27.6245  AVERAGE MISS PENALTY: 0
LLC6 PREFETCH  REQUESTED:     0  ISSUED:     0  USEFUL: 12904  USELESS: 3819785
 USEFUL LOAD PREFETCHES:      12904 PREFETCH ISSUED TO LOWER LEVEL:    3838061  ACCURACY: 0.336211
 TIMELY PREFETCHES:      12904 LATE PREFETCHES: 0 DROPPED PREFETCHES: 0
LLC6 AVERAGE MISS LATENCY: 470.638 cycles
LLC7 TOTAL     ACCESS: 927905  HIT: 126122  MISS: 801783  HIT %: 13.5921  MISS %: 86.4079  AVERAGE MISS PENALTY: 594.064
LLC7 LOAD      ACCESS: 254495  HIT:  5275  MISS: 249220  HIT %: 2.07273  MISS %: 97.9273  AVERAGE MISS PENALTY: 494.531
LLC7 RFO       ACCESS: 52673  HIT:    25  MISS: 52648  HIT %: 0.0474626  MISS %: 99.9525  AVERAGE MISS PENALTY: 424.542
LLC7 PREFETCH  ACCESS: 469195  HIT: 14141  MISS: 455054  HIT %: 3.01389  MISS %: 96.9861  AVERAGE MISS PENALTY: 726.753
LLC7 WRITEBACK ACCESS: 151542  HIT: 106681  MISS: 44861  HIT %: 70.397  MISS %: 29.603  AVERAGE MISS PENALTY: 0
LLC7 PREFETCH  REQUESTED:     0  ISSUED:     0  USEFUL: 12994  USELESS: 3625639
 USEFUL LOAD PREFETCHES:      12994 PREFETCH ISSUED TO LOWER LEVEL:    3642842  ACCURACY: 0.3567
 TIMELY PREFETCHES:      12994 LATE PREFETCHES: 0 DROPPED PREFETCHES: 0
LLC7 AVERAGE MISS LATENCY: 455.897 cycles
ROI Average ROB Stall Cycles:	11.2055
ROI Total ROB Stalls Cycles:	704049809
ROI TOTAL ROB counter      :	62830761
ROI Average Load ROB Stall Cycles:	38.85
ROI Total Load ROB Stalls Cycle  :	400043479
ROI Total Load ROB stalls Counter:	10297123
Major fault: 0 Minor fault: 97431

CPU 7 cumulative IPC: 0.271785 instructions: 200000000 cycles: 735874745
ITLB TOTAL     ACCESS: 45236105  HIT: 45236105  MISS:     0  HIT %:   100  MISS %:     0  AVERAGE MISS PENALTY: 0
ITLB LOAD      ACCESS: 45236105  HIT: 45236105  MISS:     0  HIT %:   100  MISS %:     0  AVERAGE MISS PENALTY: 0
ITLB RFO       ACCESS:     0  HIT:     0  MISS:     0  HIT %:     0  MISS %:     0  AVERAGE MISS PENALTY: 0
ITLB PREFETCH  ACCESS:     0  HIT:     0  MISS:     0  HIT %:     0  MISS %:     0  AVERAGE MISS PENALTY: 0
ITLB WRITEBACK ACCESS:     0  HIT:     0  MISS:     0  HIT %:     0  MISS %:     0  AVERAGE MISS PENALTY: 0
ITLB PREFETCH  REQUESTED:     0  ISSUED:     0  USEFUL:     0  USELESS:     0
 USEFUL LOAD PREFETCHES:          0 PREFETCH ISSUED TO LOWER LEVEL:          0  ACCURACY: -nan
 TIMELY PREFETCHES:          0 LATE PREFETCHES: 0 DROPPED PREFETCHES: 0
ITLB AVERAGE MISS LATENCY: -nan cycles
DTLB TOTAL     ACCESS: 63257324  HIT: 62518245  MISS: 739079  HIT %: 98.8316  MISS %: 1.16837  AVERAGE MISS PENALTY: 29.7122
DTLB LOAD      ACCESS: 40969000  HIT: 40251189  MISS: 717811  HIT %: 98.2479  MISS %: 1.75208  AVERAGE MISS PENALTY: 29.2172
DTLB RFO       ACCESS: 22288324  HIT: 22267056  MISS: 21268  HIT %: 99.9046  MISS %: 0.0954222  AVERAGE MISS PENALTY: 46.4168
DTLB PREFETCH  ACCESS:     0  HIT:     0  MISS:     0  HIT %:     0  MISS %:     0  AVERAGE MISS PENALTY: 0
DTLB WRITEBACK ACCESS:     0  HIT:     0  MISS:     0  HIT %:     0  MISS %:     0  AVERAGE MISS PENALTY: 0
DTLB PREFETCH  REQUESTED:     0  ISSUED:     0  USEFUL:     0  USELESS:     0
 USEFUL LOAD PREFETCHES:          0 PREFETCH ISSUED TO LOWER LEVEL:          0  ACCURACY: -nan
 TIMELY PREFETCHES:          0 LATE PREFETCHES: 0 DROPPED PREFETCHES: 0
DTLB AVERAGE MISS LATENCY: 29.7122 cycles
STLB TOTAL     ACCESS: 739079  HIT: 587151  MISS: 151928  HIT %: 79.4436  MISS %: 20.5564  AVERAGE MISS PENALTY: 100
STLB LOAD      ACCESS: 717811  HIT: 573459  MISS: 144352  HIT %: 79.89  MISS %: 20.11  AVERAGE MISS PENALTY: 100
STLB RFO       ACCESS: 21268  HIT: 13692  MISS:  7576  HIT %: 64.3784  MISS %: 35.6216  AVERAGE MISS PENALTY: 100
STLB PREFETCH  ACCESS:     0  HIT:     0  MISS:     0  HIT %:     0  MISS %:     0  AVERAGE MISS PENALTY: 0
STLB WRITEBACK ACCESS:     0  HIT:     0  MISS:     0  HIT %:     0  MISS %:     0  AVERAGE MISS PENALTY: 0
STLB PREFETCH  REQUESTED:     0  ISSUED:     0  USEFUL:     0  USELESS:     0
 USEFUL LOAD PREFETCHES:          0 PREFETCH ISSUED TO LOWER LEVEL:          0  ACCURACY: -nan
 TIMELY PREFETCHES:          0 LATE PREFETCHES: 0 DROPPED PREFETCHES: 0
STLB AVERAGE MISS LATENCY: 100 cycles
L1D TOTAL     ACCESS: 118558518  HIT: 111770921  MISS: 6787597  HIT %: 94.2749  MISS %: 5.7251  AVERAGE MISS PENALTY: 7.2594e+07
L1D LOAD      ACCESS: 40715637  HIT: 37860818  MISS: 2854819  HIT %: 92.9884  MISS %: 7.0116  AVERAGE MISS PENALTY: 1.70369e+08
L1D RFO       ACCESS: 55519430  HIT: 55077900  MISS: 441530  HIT %: 99.2047  MISS %: 0.795271  AVERAGE MISS PENALTY: 1.44169e+07
L1D PREFETCH  ACCESS: 22323451  HIT: 18832203  MISS: 3491248  HIT %: 84.3606  MISS %: 15.6394  AVERAGE MISS PENALTY: 366.59
L1D WRITEBACK ACCESS:     0  HIT:     0  MISS:     0  HIT %:     0  MISS %:     0  AVERAGE MISS PENALTY: 0
L1D PREFETCH  REQUESTED: 25312986  ISSUED: 25126179  USEFUL: 2194799  USELESS: 1296324
 USEFUL LOAD PREFETCHES:    2194799 PREFETCH ISSUED TO LOWER LEVEL:    6971576  ACCURACY: 31.4821
 TIMELY PREFETCHES:    2194799 LATE PREFETCHES: 1203554 DROPPED PREFETCHES: 186807
L1D AVERAGE MISS LATENCY: 938187 cycles
L1I TOTAL     ACCESS: 56971058  HIT: 56971058  MISS:     0  HIT %:   100  MISS %:     0  AVERAGE MISS PENALTY: 0
L1I LOAD      ACCESS: 56971058  HIT: 56971058  MISS:     0  HIT %:   100  MISS %:     0  AVERAGE MISS PENALTY: 0
L1I RFO       ACCESS:     0  HIT:     0  MISS:     0  HIT %:     0  MISS %:     0  AVERAGE MISS PENALTY: 0
L1I PREFETCH  ACCESS:     0  HIT:     0  MISS:     0  HIT %:     0  MISS %:     0  AVERAGE MISS PENALTY: 0
L1I WRITEBACK ACCESS:     0  HIT:     0  MISS:     0  HIT %:     0  MISS %:     0  AVERAGE MISS PENALTY: 0
L1I PREFETCH  REQUESTED:     0  ISSUED:     0  USEFUL:     0  USELESS:     0
 USEFUL LOAD PREFETCHES:          0 PREFETCH ISSUED TO LOWER LEVEL:          0  ACCURACY: -nan
 TIMELY PREFETCHES:          0 LATE PREFETCHES: 0 DROPPED PREFETCHES: 0
L1I AVERAGE MISS LATENCY: -nan cycles
L2C TOTAL     ACCESS: 9180637  HIT: 2931899  MISS: 6248738  HIT %: 31.9357  MISS %: 68.0643  AVERAGE MISS PENALTY: 7.00091e+07
L2C LOAD      ACCESS: 2818948  HIT: 218527  MISS: 2600421  HIT %: 7.75208  MISS %: 92.2479  AVERAGE MISS PENALTY: 1.68151e+08
L2C RFO       ACCESS: 428196  HIT:  4709  MISS: 423487  HIT %: 1.09973  MISS %: 98.9003  AVERAGE MISS PENALTY: 482558
L2C PREFETCH  ACCESS: 4627995  HIT: 1410443  MISS: 3217552  HIT %: 30.4763  MISS %: 69.5237  AVERAGE MISS PENALTY: 461.28
L2C WRITEBACK ACCESS: 1305498  HIT: 1298220  MISS:  7278  HIT %: 99.4425  MISS %: 0.557488  AVERAGE MISS PENALTY: 0
L2C PREFETCH  REQUESTED: 1848443  ISSUED: 1825581  USEFUL: 133520  USELESS: 3086200
 USEFUL LOAD PREFETCHES:     133520 PREFETCH ISSUED TO LOWER LEVEL:    4511687  ACCURACY: 2.95943
 TIMELY PREFETCHES:     133520 LATE PREFETCHES: 923775 DROPPED PREFETCHES: 22862
L2C AVERAGE MISS LATENCY: 481.979 cycles
LLC0 TOTAL     ACCESS: 920698  HIT: 127688  MISS: 793010  HIT %: 13.8686  MISS %: 86.1314  AVERAGE MISS PENALTY: 466.264
LLC0 LOAD      ACCESS: 216049  HIT:  4267  MISS: 211782  HIT %: 1.97501  MISS %: 98.025  AVERAGE MISS PENALTY: 507.037
LLC0 RFO       ACCESS: 53866  HIT:    24  MISS: 53842  HIT %: 0.044555  MISS %: 99.9554  AVERAGE MISS PENALTY: 416.244
LLC0 PREFETCH  ACCESS: 498730  HIT: 14597  MISS: 484133  HIT %: 2.92683  MISS %: 97.0732  AVERAGE MISS PENALTY: 495.648
LLC0 WRITEBACK ACCESS: 152053  HIT: 108800  MISS: 43253  HIT %: 71.554  MISS %: 28.446  AVERAGE MISS PENALTY: 0
LLC0 PREFETCH  REQUESTED:     0  ISSUED:     0  USEFUL: 13238  USELESS: 3863868
 USEFUL LOAD PREFETCHES:      13238 PREFETCH ISSUED TO LOWER LEVEL:    3880583  ACCURACY: 0.341134
 TIMELY PREFETCHES:      13238 LATE PREFETCHES: 0 DROPPED PREFETCHES: 0
LLC0 AVERAGE MISS LATENCY: 466.264 cycles
Deadblocks : 1686133 Deadblock percentage : 796.164

LLC1 TOTAL     ACCESS: 935693  HIT: 127702  MISS: 807991  HIT %: 13.6479  MISS %: 86.3521  AVERAGE MISS PENALTY: 473.188
LLC1 LOAD      ACCESS: 215488  HIT:  4343  MISS: 211145  HIT %: 2.01543  MISS %: 97.9846  AVERAGE MISS PENALTY: 519.74
LLC1 RFO       ACCESS: 52877  HIT:    26  MISS: 52851  HIT %: 0.0491707  MISS %: 99.9508  AVERAGE MISS PENALTY: 426.772
LLC1 PREFETCH  ACCESS: 516225  HIT: 14129  MISS: 502096  HIT %: 2.73698  MISS %: 97.263  AVERAGE MISS PENALTY: 497.983
LLC1 WRITEBACK ACCESS: 151103  HIT: 109204  MISS: 41899  HIT %: 72.2712  MISS %: 27.7288  AVERAGE MISS PENALTY: 0
LLC1 PREFETCH  REQUESTED:     0  ISSUED:     0  USEFUL: 13179  USELESS: 4003755
 USEFUL LOAD PREFETCHES:      13179 PREFETCH ISSUED TO LOWER LEVEL:    4015586  ACCURACY: 0.328196
 TIMELY PREFETCHES:      13179 LATE PREFETCHES: 0 DROPPED PREFETCHES: 0
LLC1 AVERAGE MISS LATENCY: 473.187 cycles
LLC2 TOTAL     ACCESS: 941413  HIT: 128573  MISS: 812840  HIT %: 13.6574  MISS %: 86.3426  AVERAGE MISS PENALTY: 465.338
LLC2 LOAD      ACCESS: 208069  HIT:  4111  MISS: 203958  HIT %: 1.97579  MISS %: 98.0242  AVERAGE MISS PENALTY: 515.518
LLC2 RFO       ACCESS: 52714  HIT:    21  MISS: 52693  HIT %: 0.0398376  MISS %: 99.9602  AVERAGE MISS PENALTY: 424.104
LLC2 PREFETCH  ACCESS: 529141  HIT: 14355  MISS: 514786  HIT %: 2.71289  MISS %: 97.2871  AVERAGE MISS PENALTY: 487.103
LLC2 WRITEBACK ACCESS: 151489  HIT: 110086  MISS: 41403  HIT %: 72.6693  MISS %: 27.3307  AVERAGE MISS PENALTY: 0
LLC2 PREFETCH  REQUESTED:     0  ISSUED:     0  USEFUL: 12918  USELESS: 4104439
 USEFUL LOAD PREFETCHES:      12918 PREFETCH ISSUED TO LOWER LEVEL:    4117408  ACCURACY: 0.313741
 TIMELY PREFETCHES:      12918 LATE PREFETCHES: 0 DROPPED PREFETCHES: 0
LLC2 AVERAGE MISS LATENCY: 465.338 cycles
LLC3 TOTAL     ACCESS: 933567  HIT: 127931  MISS: 805636  HIT %: 13.7035  MISS %: 86.2965  AVERAGE MISS PENALTY: 469.558
LLC3 LOAD      ACCESS: 218751  HIT:  4314  MISS: 214437  HIT %: 1.97211  MISS %: 98.0279  AVERAGE MISS PENALTY: 508.433
LLC3 RFO       ACCESS: 52749  HIT:    13  MISS: 52736  HIT %: 0.024645  MISS %: 99.9754  AVERAGE MISS PENALTY: 428.648
LLC3 PREFETCH  ACCESS: 511239  HIT: 14165  MISS: 497074  HIT %: 2.77072  MISS %: 97.2293  AVERAGE MISS PENALTY: 496.226
LLC3 WRITEBACK ACCESS: 150828  HIT: 109439  MISS: 41389  HIT %: 72.5588  MISS %: 27.4412  AVERAGE MISS PENALTY: 0
LLC3 PREFETCH  REQUESTED:     0  ISSUED:     0  USEFUL: 13032  USELESS: 3968810
 USEFUL LOAD PREFETCHES:      13032 PREFETCH ISSUED TO LOWER LEVEL:    3982724  ACCURACY: 0.327213
 TIMELY PREFETCHES:      13032 LATE PREFETCHES: 0 DROPPED PREFETCHES: 0
LLC3 AVERAGE MISS LATENCY: 469.558 cycles
LLC4 TOTAL     ACCESS: 930601  HIT: 128736  MISS: 801865  HIT %: 13.8336  MISS %: 86.1664  AVERAGE MISS PENALTY: 476.675
LLC4 LOAD      ACCESS: 216667  HIT:  4283  MISS: 212384  HIT %: 1.97677  MISS %: 98.0232  AVERAGE MISS PENALTY: 528.172
LLC4 RFO       ACCESS: 52729  HIT:    21  MISS: 52708  HIT %: 0.0398263  MISS %: 99.9602  AVERAGE MISS PENALTY: 420.421
LLC4 PREFETCH  ACCESS: 509780  HIT: 14282  MISS: 495498  HIT %: 2.8016  MISS %: 97.1984  AVERAGE MISS PENALTY: 500.292
LLC4 WRITEBACK ACCESS: 151425  HIT: 110150  MISS: 41275  HIT %: 72.7423  MISS %: 27.2577  AVERAGE MISS PENALTY: 0
LLC4 PREFETCH  REQUESTED:     0  ISSUED:     0  USEFUL: 12891  USELESS: 3955214
 USEFUL LOAD PREFETCHES:      12891 PREFETCH ISSUED TO LOWER LEVEL:    3966173  ACCURACY: 0.325024
 TIMELY PREFETCHES:      12891 LATE PREFETCHES: 0 DROPPED PREFETCHES: 0
LLC4 AVERAGE MISS LATENCY: 476.675 cycles
LLC5 TOTAL     ACCESS: 931032  HIT: 128415  MISS: 802617  HIT %: 13.7928  MISS %: 86.2072  AVERAGE MISS PENALTY: 459.401
LLC5 LOAD      ACCESS: 231600  HIT:  4642  MISS: 226958  HIT %: 2.00432  MISS %: 97.9957  AVERAGE MISS PENALTY: 502.572
LLC5 RFO       ACCESS: 52732  HIT:    15  MISS: 52717  HIT %: 0.0284457  MISS %: 99.9716  AVERAGE MISS PENALTY: 415.523
LLC5 PREFETCH  ACCESS: 496160  HIT: 14247  MISS: 481913  HIT %: 2.87145  MISS %: 97.1285  AVERAGE MISS PENALTY: 482.982
LLC5 WRITEBACK ACCESS: 150540  HIT: 109511  MISS: 41029  HIT %: 72.7454  MISS %: 27.2546  AVERAGE MISS PENALTY: 0
LLC5 PREFETCH  REQUESTED:     0  ISSUED:     0  USEFUL: 13018  USELESS: 3841628
 USEFUL LOAD PREFETCHES:      13018 PREFETCH ISSUED TO LOWER LEVEL:    3857106  ACCURACY: 0.337507
 TIMELY PREFETCHES:      13018 LATE PREFETCHES: 0 DROPPED PREFETCHES: 0
LLC5 AVERAGE MISS LATENCY: 459.401 cycles
LLC6 TOTAL     ACCESS: 931523  HIT: 127728  MISS: 803795  HIT %: 13.7117  MISS %: 86.2883  AVERAGE MISS PENALTY: 470.737
LLC6 LOAD      ACCESS: 234309  HIT:  4829  MISS: 229480  HIT %: 2.06095  MISS %: 97.939  AVERAGE MISS PENALTY: 525.588
LLC6 RFO       ACCESS: 52683  HIT:    20  MISS: 52663  HIT %: 0.0379629  MISS %: 99.962  AVERAGE MISS PENALTY: 426.213
LLC6 PREFETCH  ACCESS: 493350  HIT: 14082  MISS: 479268  HIT %: 2.85436  MISS %: 97.1456  AVERAGE MISS PENALTY: 490.995
LLC6 WRITEBACK ACCESS: 151181  HIT: 108797  MISS: 42384  HIT %: 71.9647  MISS %: 28.0353  AVERAGE MISS PENALTY: 0
LLC6 PREFETCH  REQUESTED:     0  ISSUED:     0  USEFUL: 12904  USELESS: 3819785
 USEFUL LOAD PREFETCHES:      12904 PREFETCH ISSUED TO LOWER LEVEL:    3838061  ACCURACY: 0.336211
 TIMELY PREFETCHES:      12904 LATE PREFETCHES: 0 DROPPED PREFETCHES: 0
LLC6 AVERAGE MISS LATENCY: 470.737 cycles
LLC7 TOTAL     ACCESS: 926718  HIT: 124954  MISS: 801764  HIT %: 13.4835  MISS %: 86.5165  AVERAGE MISS PENALTY: 455.591
LLC7 LOAD      ACCESS: 254147  HIT:  5289  MISS: 248858  HIT %: 2.08108  MISS %: 97.9189  AVERAGE MISS PENALTY: 497.296
LLC7 RFO       ACCESS: 52709  HIT:    27  MISS: 52682  HIT %: 0.0512246  MISS %: 99.9488  AVERAGE MISS PENALTY: 419.566
LLC7 PREFETCH  ACCESS: 468695  HIT: 13922  MISS: 454773  HIT %: 2.97038  MISS %: 97.0296  AVERAGE MISS PENALTY: 482.475
LLC7 WRITEBACK ACCESS: 151167  HIT: 105716  MISS: 45451  HIT %: 69.9333  MISS %: 30.0667  AVERAGE MISS PENALTY: 0
LLC7 PREFETCH  REQUESTED:     0  ISSUED:     0  USEFUL: 12994  USELESS: 3625639
 USEFUL LOAD PREFETCHES:      12994 PREFETCH ISSUED TO LOWER LEVEL:    3642842  ACCURACY: 0.3567
 TIMELY PREFETCHES:      12994 LATE PREFETCHES: 0 DROPPED PREFETCHES: 0
LLC7 AVERAGE MISS LATENCY: 455.591 cycles
ROI Average ROB Stall Cycles:	11.2046
ROI Total ROB Stalls Cycles:	704023713
ROI TOTAL ROB counter      :	62833571
ROI Average Load ROB Stall Cycles:	38.886
ROI Total Load ROB Stalls Cycle  :	400435359
ROI Total Load ROB stalls Counter:	10297673
Major fault: 0 Minor fault: 97432








Interconnect Stats 
LINK 0 BW : 0LINK 1 BW : 0LINK 2 BW : 0LINK 3 BW : 0LINK 4 BW : 0LINK 5 BW : 0LINK 6 BW : 0LINK 7 BW : 0
DRAM Statistics
 CHANNEL 0
 RQ ROW_BUFFER_HIT: 6284547  ROW_BUFFER_MISS: 18056323
 DBUS_CONGESTED: 21755184
 WQ ROW_BUFFER_HIT: 363589  ROW_BUFFER_MISS: 4466829  FULL:     0

 CHANNEL 1
 RQ ROW_BUFFER_HIT: 6254756  ROW_BUFFER_MISS: 18127596
 DBUS_CONGESTED: 21755184
 WQ ROW_BUFFER_HIT: 358720  ROW_BUFFER_MISS: 4452362  FULL:     0

 AVG_CONGESTED_CYCLE: 6
DRAM PAGES: 2097152
Allocated PAGES: 779448
L2C destructor called
L1D destructor called
L1I destructor called
STLB destructor called
DTLB destructor called
ITLB destructor called
L2C destructor called
L1D destructor called
L1I destructor called
STLB destructor called
DTLB destructor called
ITLB destructor called
L2C destructor called
L1D destructor called
L1I destructor called
STLB destructor called
DTLB destructor called
ITLB destructor called
L2C destructor called
L1D destructor called
L1I destructor called
STLB destructor called
DTLB destructor called
ITLB destructor called
L2C destructor called
L1D destructor called
L1I destructor called
STLB destructor called
DTLB destructor called
ITLB destructor called
L2C destructor called
L1D destructor called
L1I destructor called
STLB destructor called
DTLB destructor called
ITLB destructor called
L2C destructor called
L1D destructor called
L1I destructor called
STLB destructor called
DTLB destructor called
ITLB destructor called
L2C destructor called
L1D destructor called
L1I destructor called
STLB destructor called
DTLB destructor called
ITLB destructor called
