
*** ChampSim Multicore Out-of-Order Simulator ***

Warmup Instructions: 200000000
Simulation Instructions: 200000000
Number of CPUs: 8
threads:1

L1I Configuration:
L1I_SET:64
L1I_WAY:8
L1I_RQ_SIZE:64
L1I_WQ_SIZE:64
L1I_PQ_SIZE:8
L1I_MSHR_SIZE:8

L1D Configuration:
L1D_SET:64
L1D_WAY:12
L1D_RQ_SIZE:64
L1D_WQ_SIZE:64
L1D_PQ_SIZE:8
L1D_MSHR_SIZE:16

L2C Configuration:
L2C_SET:1024
L2C_WAY:8
L2C_RQ_SIZE:32
L2C_WQ_SIZE:32
L2C_PQ_SIZE:16
L2C_MSHR_SIZE:32

LLC Configuration:
LLC_SET:2048
LLC_WAY:16
LLC SLICES:8
LLC_RQ_SIZE:64
LLC_WQ_SIZE:64
LLC_PQ_SIZE:32
LLC_MSHR_SIZE:64

Interconnect OFF
Attacker deprioritize is: OFF
Off-chip DRAM Size: 8192 MB Channels: 2 Width: 64-bit Data Rate: 3200 MT/s
PAGE SIZE in KB: 4.000000 
PAGE SIZE in MB: 0.003906 
PAGE offset in bits: 12 
CEASER-S_LLC:0
MIRAGE : 0
CEASER_LATENCY:3
REMAP : OFF
Partitions : 1
Multi-Step : OFF
BFS : OFF

CPU 0 runs /home/anubhav/spec_2017/607.cactuBSSN_s-2421B.champsimtrace.xz
CPU 1 runs /home/anubhav/spec_2017/607.cactuBSSN_s-2421B.champsimtrace.xz
CPU 2 runs /home/anubhav/spec_2017/607.cactuBSSN_s-2421B.champsimtrace.xz
CPU 3 runs /home/anubhav/spec_2017/607.cactuBSSN_s-2421B.champsimtrace.xz
CPU 4 runs /home/anubhav/spec_2017/607.cactuBSSN_s-2421B.champsimtrace.xz
CPU 5 runs /home/anubhav/spec_2017/607.cactuBSSN_s-2421B.champsimtrace.xz
CPU 6 runs /home/anubhav/spec_2017/607.cactuBSSN_s-2421B.champsimtrace.xz
CPU 7 runs /home/anubhav/spec_2017/607.cactuBSSN_s-2421B.champsimtrace.xz
CPU 0 Bimodal branch predictor
Initialize Hawkeye state
Initialize Hawkeye state
Initialize Hawkeye state
Initialize Hawkeye state
Initialize Hawkeye state
Initialize Hawkeye state
Initialize Hawkeye state
Initialize Hawkeye state
CPU 1 Bimodal branch predictor
Initialize Hawkeye state
Initialize Hawkeye state
Initialize Hawkeye state
Initialize Hawkeye state
Initialize Hawkeye state
Initialize Hawkeye state
Initialize Hawkeye state
Initialize Hawkeye state
CPU 2 Bimodal branch predictor
Initialize Hawkeye state
Initialize Hawkeye state
Initialize Hawkeye state
Initialize Hawkeye state
Initialize Hawkeye state
Initialize Hawkeye state
Initialize Hawkeye state
Initialize Hawkeye state
CPU 3 Bimodal branch predictor
Initialize Hawkeye state
Initialize Hawkeye state
Initialize Hawkeye state
Initialize Hawkeye state
Initialize Hawkeye state
Initialize Hawkeye state
Initialize Hawkeye state
Initialize Hawkeye state
CPU 4 Bimodal branch predictor
Initialize Hawkeye state
Initialize Hawkeye state
Initialize Hawkeye state
Initialize Hawkeye state
Initialize Hawkeye state
Initialize Hawkeye state
Initialize Hawkeye state
Initialize Hawkeye state
CPU 5 Bimodal branch predictor
Initialize Hawkeye state
Initialize Hawkeye state
Initialize Hawkeye state
Initialize Hawkeye state
Initialize Hawkeye state
Initialize Hawkeye state
Initialize Hawkeye state
Initialize Hawkeye state
CPU 6 Bimodal branch predictor
Initialize Hawkeye state
Initialize Hawkeye state
Initialize Hawkeye state
Initialize Hawkeye state
Initialize Hawkeye state
Initialize Hawkeye state
Initialize Hawkeye state
Initialize Hawkeye state
CPU 7 Bimodal branch predictor
Initialize Hawkeye state
Initialize Hawkeye state
Initialize Hawkeye state
Initialize Hawkeye state
Initialize Hawkeye state
Initialize Hawkeye state
Initialize Hawkeye state
Initialize Hawkeye state
Heartbeat CPU 3 instructions: 10000001 cycles: 5478902 heartbeat IPC: 1.82518 cumulative IPC: 1.82518 (Simulation time: 3 hr 16 min 14 sec) 
 Total Blocks : 262144 Invalid Blocks : 90399
Heartbeat CPU 6 instructions: 10000001 cycles: 5479119 heartbeat IPC: 1.82511 cumulative IPC: 1.82511 (Simulation time: 3 hr 16 min 24 sec) 
 Total Blocks : 262144 Invalid Blocks : 90399
Heartbeat CPU 7 instructions: 10000001 cycles: 5479596 heartbeat IPC: 1.82495 cumulative IPC: 1.82495 (Simulation time: 3 hr 16 min 28 sec) 
 Total Blocks : 262144 Invalid Blocks : 90399
Heartbeat CPU 1 instructions: 10000001 cycles: 5479612 heartbeat IPC: 1.82495 cumulative IPC: 1.82495 (Simulation time: 3 hr 16 min 28 sec) 
 Total Blocks : 262144 Invalid Blocks : 90399
Heartbeat CPU 4 instructions: 10000001 cycles: 5479639 heartbeat IPC: 1.82494 cumulative IPC: 1.82494 (Simulation time: 3 hr 16 min 28 sec) 
 Total Blocks : 262144 Invalid Blocks : 90399
Heartbeat CPU 0 instructions: 10000001 cycles: 5479829 heartbeat IPC: 1.82487 cumulative IPC: 1.82487 (Simulation time: 3 hr 16 min 28 sec) 
 Total Blocks : 262144 Invalid Blocks : 90399
Heartbeat CPU 5 instructions: 10000001 cycles: 5479980 heartbeat IPC: 1.82482 cumulative IPC: 1.82482 (Simulation time: 3 hr 16 min 29 sec) 
 Total Blocks : 262144 Invalid Blocks : 90399
Heartbeat CPU 2 instructions: 10000001 cycles: 5480053 heartbeat IPC: 1.8248 cumulative IPC: 1.8248 (Simulation time: 3 hr 16 min 29 sec) 
 Total Blocks : 262144 Invalid Blocks : 90399
Heartbeat CPU 3 instructions: 20000000 cycles: 10968004 heartbeat IPC: 1.82179 cumulative IPC: 1.82349 (Simulation time: 6 hr 9 min 5 sec) 
 Total Blocks : 262144 Invalid Blocks : 37702
Heartbeat CPU 7 instructions: 20000000 cycles: 10968166 heartbeat IPC: 1.82197 cumulative IPC: 1.82346 (Simulation time: 6 hr 9 min 16 sec) 
 Total Blocks : 262144 Invalid Blocks : 37702
Heartbeat CPU 6 instructions: 20000000 cycles: 10968251 heartbeat IPC: 1.82178 cumulative IPC: 1.82344 (Simulation time: 6 hr 9 min 20 sec) 
 Total Blocks : 262144 Invalid Blocks : 37702
Heartbeat CPU 1 instructions: 20000000 cycles: 10968616 heartbeat IPC: 1.82182 cumulative IPC: 1.82338 (Simulation time: 6 hr 9 min 25 sec) 
 Total Blocks : 262144 Invalid Blocks : 37702
Heartbeat CPU 4 instructions: 20000000 cycles: 10968765 heartbeat IPC: 1.82178 cumulative IPC: 1.82336 (Simulation time: 6 hr 9 min 26 sec) 
 Total Blocks : 262144 Invalid Blocks : 37702
Heartbeat CPU 0 instructions: 20000000 cycles: 10968886 heartbeat IPC: 1.82181 cumulative IPC: 1.82334 (Simulation time: 6 hr 9 min 26 sec) 
 Total Blocks : 262144 Invalid Blocks : 37702
Heartbeat CPU 5 instructions: 20000000 cycles: 10969049 heartbeat IPC: 1.8218 cumulative IPC: 1.82331 (Simulation time: 6 hr 9 min 28 sec) 
 Total Blocks : 262144 Invalid Blocks : 37702
Heartbeat CPU 2 instructions: 20000000 cycles: 10969087 heartbeat IPC: 1.82181 cumulative IPC: 1.82331 (Simulation time: 6 hr 9 min 28 sec) 
 Total Blocks : 262144 Invalid Blocks : 37702
Heartbeat CPU 3 instructions: 30000001 cycles: 16446291 heartbeat IPC: 1.82539 cumulative IPC: 1.82412 (Simulation time: 8 hr 55 min 52 sec) 
 Total Blocks : 262144 Invalid Blocks : 16469
Heartbeat CPU 7 instructions: 30000001 cycles: 16446781 heartbeat IPC: 1.82528 cumulative IPC: 1.82407 (Simulation time: 8 hr 56 min 17 sec) 
 Total Blocks : 262144 Invalid Blocks : 16464
Heartbeat CPU 6 instructions: 30000001 cycles: 16447062 heartbeat IPC: 1.82521 cumulative IPC: 1.82403 (Simulation time: 8 hr 56 min 20 sec) 
 Total Blocks : 262144 Invalid Blocks : 16461
Heartbeat CPU 1 instructions: 30000001 cycles: 16447336 heartbeat IPC: 1.82524 cumulative IPC: 1.824 (Simulation time: 8 hr 56 min 21 sec) 
 Total Blocks : 262144 Invalid Blocks : 16461
Heartbeat CPU 4 instructions: 30000001 cycles: 16447639 heartbeat IPC: 1.82519 cumulative IPC: 1.82397 (Simulation time: 8 hr 56 min 22 sec) 
 Total Blocks : 262144 Invalid Blocks : 16459
Heartbeat CPU 5 instructions: 30000001 cycles: 16447710 heartbeat IPC: 1.82526 cumulative IPC: 1.82396 (Simulation time: 8 hr 56 min 23 sec) 
 Total Blocks : 262144 Invalid Blocks : 16459
Heartbeat CPU 0 instructions: 30000001 cycles: 16447782 heartbeat IPC: 1.82519 cumulative IPC: 1.82395 (Simulation time: 8 hr 56 min 23 sec) 
 Total Blocks : 262144 Invalid Blocks : 16459
Heartbeat CPU 2 instructions: 30000001 cycles: 16447898 heartbeat IPC: 1.82521 cumulative IPC: 1.82394 (Simulation time: 8 hr 56 min 23 sec) 
 Total Blocks : 262144 Invalid Blocks : 16457
Heartbeat CPU 3 instructions: 40000000 cycles: 21924991 heartbeat IPC: 1.82525 cumulative IPC: 1.8244 (Simulation time: 11 hr 29 min 39 sec) 
 Total Blocks : 262144 Invalid Blocks : 7377
Heartbeat CPU 7 instructions: 40000000 cycles: 21925719 heartbeat IPC: 1.82517 cumulative IPC: 1.82434 (Simulation time: 11 hr 29 min 48 sec) 
 Total Blocks : 262144 Invalid Blocks : 7376
Heartbeat CPU 6 instructions: 40000000 cycles: 21926078 heartbeat IPC: 1.82515 cumulative IPC: 1.82431 (Simulation time: 11 hr 29 min 52 sec) 
 Total Blocks : 262144 Invalid Blocks : 7376
Heartbeat CPU 1 instructions: 40000000 cycles: 21926463 heartbeat IPC: 1.82511 cumulative IPC: 1.82428 (Simulation time: 11 hr 29 min 53 sec) 
 Total Blocks : 262144 Invalid Blocks : 7376
Heartbeat CPU 4 instructions: 40000000 cycles: 21926697 heartbeat IPC: 1.82513 cumulative IPC: 1.82426 (Simulation time: 11 hr 29 min 55 sec) 
 Total Blocks : 262144 Invalid Blocks : 7376
Heartbeat CPU 5 instructions: 40000000 cycles: 21926926 heartbeat IPC: 1.82508 cumulative IPC: 1.82424 (Simulation time: 11 hr 29 min 55 sec) 
 Total Blocks : 262144 Invalid Blocks : 7376
Heartbeat CPU 2 instructions: 40000000 cycles: 21926999 heartbeat IPC: 1.82512 cumulative IPC: 1.82424 (Simulation time: 11 hr 29 min 56 sec) 
 Total Blocks : 262144 Invalid Blocks : 7376
Heartbeat CPU 0 instructions: 40000000 cycles: 21927052 heartbeat IPC: 1.82506 cumulative IPC: 1.82423 (Simulation time: 11 hr 29 min 56 sec) 
 Total Blocks : 262144 Invalid Blocks : 7376
Heartbeat CPU 3 instructions: 50000003 cycles: 27404196 heartbeat IPC: 1.82508 cumulative IPC: 1.82454 (Simulation time: 13 hr 47 min 1 sec) 
 Total Blocks : 262144 Invalid Blocks : 3401
Heartbeat CPU 7 instructions: 50000003 cycles: 27405149 heartbeat IPC: 1.82501 cumulative IPC: 1.82447 (Simulation time: 13 hr 47 min 15 sec) 
 Total Blocks : 262144 Invalid Blocks : 3399
Heartbeat CPU 6 instructions: 50000003 cycles: 27405661 heartbeat IPC: 1.82496 cumulative IPC: 1.82444 (Simulation time: 13 hr 47 min 32 sec) 
 Total Blocks : 262144 Invalid Blocks : 3399
Heartbeat CPU 1 instructions: 50000003 cycles: 27405876 heartbeat IPC: 1.82501 cumulative IPC: 1.82443 (Simulation time: 13 hr 47 min 33 sec) 
 Total Blocks : 262144 Invalid Blocks : 3399
Heartbeat CPU 4 instructions: 50000003 cycles: 27406082 heartbeat IPC: 1.82502 cumulative IPC: 1.82441 (Simulation time: 13 hr 47 min 33 sec) 
 Total Blocks : 262144 Invalid Blocks : 3399
Heartbeat CPU 2 instructions: 50000003 cycles: 27406383 heartbeat IPC: 1.82502 cumulative IPC: 1.82439 (Simulation time: 13 hr 47 min 34 sec) 
 Total Blocks : 262144 Invalid Blocks : 3399
Heartbeat CPU 5 instructions: 50000003 cycles: 27406639 heartbeat IPC: 1.82491 cumulative IPC: 1.82438 (Simulation time: 13 hr 47 min 34 sec) 
 Total Blocks : 262144 Invalid Blocks : 3399
Heartbeat CPU 0 instructions: 50000003 cycles: 27406730 heartbeat IPC: 1.82493 cumulative IPC: 1.82437 (Simulation time: 13 hr 47 min 35 sec) 
 Total Blocks : 262144 Invalid Blocks : 3399
Heartbeat CPU 3 instructions: 60000003 cycles: 31640114 heartbeat IPC: 2.36076 cumulative IPC: 1.89633 (Simulation time: 16 hr 10 min 45 sec) 
 Total Blocks : 262144 Invalid Blocks : 379
Heartbeat CPU 7 instructions: 60000003 cycles: 31640864 heartbeat IPC: 2.36088 cumulative IPC: 1.89628 (Simulation time: 16 hr 10 min 56 sec) 
 Total Blocks : 262144 Invalid Blocks : 379
Heartbeat CPU 6 instructions: 60000003 cycles: 31641176 heartbeat IPC: 2.36099 cumulative IPC: 1.89626 (Simulation time: 16 hr 10 min 57 sec) 
 Total Blocks : 262144 Invalid Blocks : 379
Heartbeat CPU 1 instructions: 60000003 cycles: 31641805 heartbeat IPC: 2.36076 cumulative IPC: 1.89623 (Simulation time: 16 hr 10 min 58 sec) 
 Total Blocks : 262144 Invalid Blocks : 379
Heartbeat CPU 2 instructions: 60000003 cycles: 31642529 heartbeat IPC: 2.36064 cumulative IPC: 1.89618 (Simulation time: 16 hr 10 min 59 sec) 
 Total Blocks : 262144 Invalid Blocks : 379
Heartbeat CPU 4 instructions: 60000003 cycles: 31642554 heartbeat IPC: 2.36045 cumulative IPC: 1.89618 (Simulation time: 16 hr 10 min 59 sec) 
 Total Blocks : 262144 Invalid Blocks : 379
Heartbeat CPU 0 instructions: 60000003 cycles: 31642742 heartbeat IPC: 2.36071 cumulative IPC: 1.89617 (Simulation time: 16 hr 11 min 0 sec) 
 Total Blocks : 262144 Invalid Blocks : 379
Heartbeat CPU 5 instructions: 60000003 cycles: 31643147 heartbeat IPC: 2.36043 cumulative IPC: 1.89615 (Simulation time: 16 hr 11 min 0 sec) 
 Total Blocks : 262144 Invalid Blocks : 379
Heartbeat CPU 3 instructions: 70000000 cycles: 35516290 heartbeat IPC: 2.57986 cumulative IPC: 1.97093 (Simulation time: 18 hr 22 min 29 sec) 
 Total Blocks : 262144 Invalid Blocks : 26
Heartbeat CPU 7 instructions: 70000000 cycles: 35516556 heartbeat IPC: 2.58018 cumulative IPC: 1.97091 (Simulation time: 18 hr 22 min 49 sec) 
 Total Blocks : 262144 Invalid Blocks : 26
Heartbeat CPU 6 instructions: 70000000 cycles: 35517266 heartbeat IPC: 2.57992 cumulative IPC: 1.97087 (Simulation time: 18 hr 22 min 51 sec) 
 Total Blocks : 262144 Invalid Blocks : 26
Heartbeat CPU 1 instructions: 70000000 cycles: 35517879 heartbeat IPC: 2.57993 cumulative IPC: 1.97084 (Simulation time: 18 hr 22 min 53 sec) 
 Total Blocks : 262144 Invalid Blocks : 26
Heartbeat CPU 2 instructions: 70000000 cycles: 35518196 heartbeat IPC: 2.5802 cumulative IPC: 1.97082 (Simulation time: 18 hr 22 min 53 sec) 
 Total Blocks : 262144 Invalid Blocks : 26
Heartbeat CPU 4 instructions: 70000000 cycles: 35518362 heartbeat IPC: 2.58011 cumulative IPC: 1.97081 (Simulation time: 18 hr 22 min 53 sec) 
 Total Blocks : 262144 Invalid Blocks : 26
Heartbeat CPU 0 instructions: 70000003 cycles: 35518581 heartbeat IPC: 2.58009 cumulative IPC: 1.9708 (Simulation time: 18 hr 22 min 53 sec) 
 Total Blocks : 262144 Invalid Blocks : 26
Heartbeat CPU 5 instructions: 70000000 cycles: 35519467 heartbeat IPC: 2.57977 cumulative IPC: 1.97075 (Simulation time: 18 hr 22 min 54 sec) 
 Total Blocks : 262144 Invalid Blocks : 25
Heartbeat CPU 3 instructions: 80000002 cycles: 39392597 heartbeat IPC: 2.57978 cumulative IPC: 2.03084 (Simulation time: 20 hr 30 min 10 sec) 
 Total Blocks : 262144 Invalid Blocks : 2
Heartbeat CPU 7 instructions: 80000002 cycles: 39393189 heartbeat IPC: 2.57956 cumulative IPC: 2.03081 (Simulation time: 20 hr 30 min 14 sec) 
 Total Blocks : 262144 Invalid Blocks : 2
Heartbeat CPU 6 instructions: 80000002 cycles: 39393732 heartbeat IPC: 2.57967 cumulative IPC: 2.03078 (Simulation time: 20 hr 30 min 15 sec) 
 Total Blocks : 262144 Invalid Blocks : 2
Heartbeat CPU 1 instructions: 80000002 cycles: 39394405 heartbeat IPC: 2.57963 cumulative IPC: 2.03075 (Simulation time: 20 hr 30 min 16 sec) 
 Total Blocks : 262144 Invalid Blocks : 2
Heartbeat CPU 2 instructions: 80000002 cycles: 39395136 heartbeat IPC: 2.57935 cumulative IPC: 2.03071 (Simulation time: 20 hr 30 min 17 sec) 
 Total Blocks : 262144 Invalid Blocks : 2
Heartbeat CPU 4 instructions: 80000002 cycles: 39395176 heartbeat IPC: 2.57944 cumulative IPC: 2.03071 (Simulation time: 20 hr 30 min 17 sec) 
 Total Blocks : 262144 Invalid Blocks : 2
Heartbeat CPU 0 instructions: 80000002 cycles: 39395382 heartbeat IPC: 2.57945 cumulative IPC: 2.03069 (Simulation time: 20 hr 30 min 18 sec) 
 Total Blocks : 262144 Invalid Blocks : 2
Heartbeat CPU 5 instructions: 80000002 cycles: 39396337 heartbeat IPC: 2.5794 cumulative IPC: 2.03065 (Simulation time: 20 hr 30 min 19 sec) 
 Total Blocks : 262144 Invalid Blocks : 2
Heartbeat CPU 3 instructions: 90000003 cycles: 43271780 heartbeat IPC: 2.57786 cumulative IPC: 2.07988 (Simulation time: 22 hr 34 min 4 sec) 
 Total Blocks : 262144 Invalid Blocks : 0
Heartbeat CPU 7 instructions: 90000003 cycles: 43272449 heartbeat IPC: 2.57781 cumulative IPC: 2.07985 (Simulation time: 22 hr 34 min 19 sec) 
 Total Blocks : 262144 Invalid Blocks : 0
Heartbeat CPU 6 instructions: 90000003 cycles: 43273018 heartbeat IPC: 2.57779 cumulative IPC: 2.07982 (Simulation time: 22 hr 34 min 20 sec) 
 Total Blocks : 262144 Invalid Blocks : 0
Heartbeat CPU 1 instructions: 90000003 cycles: 43273686 heartbeat IPC: 2.5778 cumulative IPC: 2.07979 (Simulation time: 22 hr 34 min 20 sec) 
 Total Blocks : 262144 Invalid Blocks : 0
Heartbeat CPU 2 instructions: 90000003 cycles: 43274324 heartbeat IPC: 2.57786 cumulative IPC: 2.07976 (Simulation time: 22 hr 34 min 21 sec) 
 Total Blocks : 262144 Invalid Blocks : 0
Heartbeat CPU 0 instructions: 90000003 cycles: 43274450 heartbeat IPC: 2.57794 cumulative IPC: 2.07975 (Simulation time: 22 hr 34 min 21 sec) 
 Total Blocks : 262144 Invalid Blocks : 0
Heartbeat CPU 4 instructions: 90000003 cycles: 43275193 heartbeat IPC: 2.57731 cumulative IPC: 2.07971 (Simulation time: 22 hr 34 min 22 sec) 
 Total Blocks : 262144 Invalid Blocks : 0
Heartbeat CPU 5 instructions: 90000003 cycles: 43275694 heartbeat IPC: 2.57775 cumulative IPC: 2.07969 (Simulation time: 22 hr 34 min 22 sec) 
 Total Blocks : 262144 Invalid Blocks : 0
Heartbeat CPU 3 instructions: 100000001 cycles: 47150032 heartbeat IPC: 2.57848 cumulative IPC: 2.12089 (Simulation time: 24 hr 36 min 56 sec) 
 Total Blocks : 262144 Invalid Blocks : 0
Heartbeat CPU 7 instructions: 100000001 cycles: 47150794 heartbeat IPC: 2.57842 cumulative IPC: 2.12086 (Simulation time: 24 hr 36 min 59 sec) 
 Total Blocks : 262144 Invalid Blocks : 0
Heartbeat CPU 6 instructions: 100000001 cycles: 47151424 heartbeat IPC: 2.57838 cumulative IPC: 2.12083 (Simulation time: 24 hr 36 min 59 sec) 
 Total Blocks : 262144 Invalid Blocks : 0
Heartbeat CPU 1 instructions: 100000001 cycles: 47151999 heartbeat IPC: 2.57844 cumulative IPC: 2.1208 (Simulation time: 24 hr 37 min 0 sec) 
 Total Blocks : 262144 Invalid Blocks : 0
Heartbeat CPU 0 instructions: 100000001 cycles: 47152179 heartbeat IPC: 2.57883 cumulative IPC: 2.12079 (Simulation time: 24 hr 37 min 0 sec) 
 Total Blocks : 262144 Invalid Blocks : 0
Heartbeat CPU 2 instructions: 100000001 cycles: 47152724 heartbeat IPC: 2.57838 cumulative IPC: 2.12077 (Simulation time: 24 hr 37 min 0 sec) 
 Total Blocks : 262144 Invalid Blocks : 0
Heartbeat CPU 4 instructions: 100000001 cycles: 47153421 heartbeat IPC: 2.5785 cumulative IPC: 2.12074 (Simulation time: 24 hr 37 min 1 sec) 
 Total Blocks : 262144 Invalid Blocks : 0
Heartbeat CPU 5 instructions: 100000001 cycles: 47154157 heartbeat IPC: 2.57834 cumulative IPC: 2.1207 (Simulation time: 24 hr 37 min 1 sec) 
 Total Blocks : 262144 Invalid Blocks : 0
Heartbeat CPU 3 instructions: 110000000 cycles: 51026754 heartbeat IPC: 2.5795 cumulative IPC: 2.15573 (Simulation time: 26 hr 36 min 19 sec) 
 Total Blocks : 262144 Invalid Blocks : 0
Heartbeat CPU 7 instructions: 110000000 cycles: 51027610 heartbeat IPC: 2.57944 cumulative IPC: 2.1557 (Simulation time: 26 hr 36 min 28 sec) 
 Total Blocks : 262144 Invalid Blocks : 0
Heartbeat CPU 6 instructions: 110000000 cycles: 51028288 heartbeat IPC: 2.5794 cumulative IPC: 2.15567 (Simulation time: 26 hr 36 min 43 sec) 
 Total Blocks : 262144 Invalid Blocks : 0
Heartbeat CPU 1 instructions: 110000000 cycles: 51028895 heartbeat IPC: 2.57938 cumulative IPC: 2.15564 (Simulation time: 26 hr 37 min 4 sec) 
 Total Blocks : 262144 Invalid Blocks : 0
Heartbeat CPU 0 instructions: 110000000 cycles: 51029069 heartbeat IPC: 2.57939 cumulative IPC: 2.15563 (Simulation time: 26 hr 37 min 9 sec) 
 Total Blocks : 262144 Invalid Blocks : 0
Heartbeat CPU 2 instructions: 110000000 cycles: 51029495 heartbeat IPC: 2.57947 cumulative IPC: 2.15562 (Simulation time: 26 hr 37 min 12 sec) 
 Total Blocks : 262144 Invalid Blocks : 0
Heartbeat CPU 4 instructions: 110000000 cycles: 51030115 heartbeat IPC: 2.57952 cumulative IPC: 2.15559 (Simulation time: 26 hr 37 min 17 sec) 
 Total Blocks : 262144 Invalid Blocks : 0
Heartbeat CPU 5 instructions: 110000000 cycles: 51031106 heartbeat IPC: 2.57935 cumulative IPC: 2.15555 (Simulation time: 26 hr 37 min 21 sec) 
 Total Blocks : 262144 Invalid Blocks : 0
Heartbeat CPU 3 instructions: 120000000 cycles: 54902027 heartbeat IPC: 2.58046 cumulative IPC: 2.18571 (Simulation time: 28 hr 38 min 19 sec) 
 Total Blocks : 262144 Invalid Blocks : 0
Heartbeat CPU 7 instructions: 120000000 cycles: 54902940 heartbeat IPC: 2.58043 cumulative IPC: 2.18568 (Simulation time: 28 hr 38 min 23 sec) 
 Total Blocks : 262144 Invalid Blocks : 0
Heartbeat CPU 6 instructions: 120000000 cycles: 54903342 heartbeat IPC: 2.58061 cumulative IPC: 2.18566 (Simulation time: 28 hr 38 min 23 sec) 
 Total Blocks : 262144 Invalid Blocks : 0
Heartbeat CPU 1 instructions: 120000000 cycles: 54904165 heartbeat IPC: 2.58047 cumulative IPC: 2.18563 (Simulation time: 28 hr 38 min 24 sec) 
 Total Blocks : 262144 Invalid Blocks : 0
Heartbeat CPU 0 instructions: 120000000 cycles: 54904281 heartbeat IPC: 2.5805 cumulative IPC: 2.18562 (Simulation time: 28 hr 38 min 24 sec) 
 Total Blocks : 262144 Invalid Blocks : 0
Heartbeat CPU 2 instructions: 120000000 cycles: 54904666 heartbeat IPC: 2.58053 cumulative IPC: 2.18561 (Simulation time: 28 hr 38 min 24 sec) 
 Total Blocks : 262144 Invalid Blocks : 0
Heartbeat CPU 4 instructions: 120000000 cycles: 54905485 heartbeat IPC: 2.5804 cumulative IPC: 2.18557 (Simulation time: 28 hr 38 min 25 sec) 
 Total Blocks : 262144 Invalid Blocks : 0
Heartbeat CPU 5 instructions: 120000000 cycles: 54906500 heartbeat IPC: 2.58038 cumulative IPC: 2.18553 (Simulation time: 28 hr 38 min 26 sec) 
 Total Blocks : 262144 Invalid Blocks : 0
Heartbeat CPU 3 instructions: 130000001 cycles: 58778769 heartbeat IPC: 2.57949 cumulative IPC: 2.21168 (Simulation time: 30 hr 38 min 19 sec) 
 Total Blocks : 262144 Invalid Blocks : 0
Heartbeat CPU 7 instructions: 130000001 cycles: 58780222 heartbeat IPC: 2.57913 cumulative IPC: 2.21163 (Simulation time: 30 hr 38 min 23 sec) 
 Total Blocks : 262144 Invalid Blocks : 0
Heartbeat CPU 6 instructions: 130000001 cycles: 58780264 heartbeat IPC: 2.57937 cumulative IPC: 2.21163 (Simulation time: 30 hr 38 min 23 sec) 
 Total Blocks : 262144 Invalid Blocks : 0
Heartbeat CPU 1 instructions: 130000001 cycles: 58780735 heartbeat IPC: 2.5796 cumulative IPC: 2.21161 (Simulation time: 30 hr 38 min 23 sec) 
 Total Blocks : 262144 Invalid Blocks : 0
Heartbeat CPU 0 instructions: 130000001 cycles: 58781018 heartbeat IPC: 2.57949 cumulative IPC: 2.2116 (Simulation time: 30 hr 38 min 23 sec) 
 Total Blocks : 262144 Invalid Blocks : 0
Heartbeat CPU 2 instructions: 130000001 cycles: 58781754 heartbeat IPC: 2.57926 cumulative IPC: 2.21157 (Simulation time: 30 hr 38 min 24 sec) 
 Total Blocks : 262144 Invalid Blocks : 0
Heartbeat CPU 4 instructions: 130000001 cycles: 58782316 heartbeat IPC: 2.57943 cumulative IPC: 2.21155 (Simulation time: 30 hr 38 min 25 sec) 
 Total Blocks : 262144 Invalid Blocks : 0
Heartbeat CPU 5 instructions: 130000001 cycles: 58783180 heartbeat IPC: 2.57953 cumulative IPC: 2.21152 (Simulation time: 30 hr 38 min 25 sec) 
 Total Blocks : 262144 Invalid Blocks : 0
Heartbeat CPU 3 instructions: 140000002 cycles: 62657821 heartbeat IPC: 2.57795 cumulative IPC: 2.23436 (Simulation time: 32 hr 38 min 17 sec) 
 Total Blocks : 262144 Invalid Blocks : 0
Heartbeat CPU 7 instructions: 140000002 cycles: 62658856 heartbeat IPC: 2.57823 cumulative IPC: 2.23432 (Simulation time: 32 hr 38 min 19 sec) 
 Total Blocks : 262144 Invalid Blocks : 0
Heartbeat CPU 6 instructions: 140000002 cycles: 62658915 heartbeat IPC: 2.57822 cumulative IPC: 2.23432 (Simulation time: 32 hr 38 min 19 sec) 
 Total Blocks : 262144 Invalid Blocks : 0
Heartbeat CPU 1 instructions: 140000002 cycles: 62659591 heartbeat IPC: 2.57808 cumulative IPC: 2.23429 (Simulation time: 32 hr 38 min 20 sec) 
 Total Blocks : 262144 Invalid Blocks : 0
Heartbeat CPU 0 instructions: 140000002 cycles: 62660021 heartbeat IPC: 2.57798 cumulative IPC: 2.23428 (Simulation time: 32 hr 38 min 20 sec) 
 Total Blocks : 262144 Invalid Blocks : 0
Heartbeat CPU 2 instructions: 140000002 cycles: 62660644 heartbeat IPC: 2.57806 cumulative IPC: 2.23426 (Simulation time: 32 hr 38 min 20 sec) 
 Total Blocks : 262144 Invalid Blocks : 0
Heartbeat CPU 4 instructions: 140000002 cycles: 62661243 heartbeat IPC: 2.57803 cumulative IPC: 2.23424 (Simulation time: 32 hr 38 min 21 sec) 
 Total Blocks : 262144 Invalid Blocks : 0
Heartbeat CPU 5 instructions: 140000002 cycles: 62662044 heartbeat IPC: 2.57807 cumulative IPC: 2.23421 (Simulation time: 32 hr 38 min 21 sec) 
 Total Blocks : 262144 Invalid Blocks : 0
Heartbeat CPU 3 instructions: 150000000 cycles: 66534454 heartbeat IPC: 2.57956 cumulative IPC: 2.25447 (Simulation time: 34 hr 28 min 55 sec) 
 Total Blocks : 262144 Invalid Blocks : 0
Heartbeat CPU 6 instructions: 150000000 cycles: 66535772 heartbeat IPC: 2.57941 cumulative IPC: 2.25443 (Simulation time: 34 hr 28 min 58 sec) 
 Total Blocks : 262144 Invalid Blocks : 0
Heartbeat CPU 0 instructions: 150000000 cycles: 66535856 heartbeat IPC: 2.58009 cumulative IPC: 2.25442 (Simulation time: 34 hr 28 min 58 sec) 
 Total Blocks : 262144 Invalid Blocks : 0
Heartbeat CPU 1 instructions: 150000000 cycles: 66536169 heartbeat IPC: 2.57959 cumulative IPC: 2.25441 (Simulation time: 34 hr 28 min 58 sec) 
 Total Blocks : 262144 Invalid Blocks : 0
Heartbeat CPU 7 instructions: 150000000 cycles: 66536515 heartbeat IPC: 2.57888 cumulative IPC: 2.2544 (Simulation time: 34 hr 28 min 59 sec) 
 Total Blocks : 262144 Invalid Blocks : 0
Heartbeat CPU 2 instructions: 150000000 cycles: 66537232 heartbeat IPC: 2.57959 cumulative IPC: 2.25438 (Simulation time: 34 hr 28 min 59 sec) 
 Total Blocks : 262144 Invalid Blocks : 0
Heartbeat CPU 4 instructions: 150000000 cycles: 66538048 heartbeat IPC: 2.57944 cumulative IPC: 2.25435 (Simulation time: 34 hr 29 min 0 sec) 
 Total Blocks : 262144 Invalid Blocks : 0
Heartbeat CPU 5 instructions: 150000000 cycles: 66538858 heartbeat IPC: 2.57944 cumulative IPC: 2.25432 (Simulation time: 34 hr 29 min 1 sec) 
 Total Blocks : 262144 Invalid Blocks : 0
Heartbeat CPU 3 instructions: 160000002 cycles: 70411199 heartbeat IPC: 2.57948 cumulative IPC: 2.27237 (Simulation time: 36 hr 6 min 46 sec) 
 Total Blocks : 262144 Invalid Blocks : 0
Heartbeat CPU 0 instructions: 160000002 cycles: 70412228 heartbeat IPC: 2.57973 cumulative IPC: 2.27233 (Simulation time: 36 hr 6 min 49 sec) 
 Total Blocks : 262144 Invalid Blocks : 0
Heartbeat CPU 1 instructions: 160000002 cycles: 70413065 heartbeat IPC: 2.57938 cumulative IPC: 2.27231 (Simulation time: 36 hr 6 min 49 sec) 
 Total Blocks : 262144 Invalid Blocks : 0
Heartbeat CPU 6 instructions: 160000002 cycles: 70413136 heartbeat IPC: 2.57907 cumulative IPC: 2.2723 (Simulation time: 36 hr 6 min 49 sec) 
 Total Blocks : 262144 Invalid Blocks : 0
Heartbeat CPU 7 instructions: 160000002 cycles: 70413139 heartbeat IPC: 2.57956 cumulative IPC: 2.2723 (Simulation time: 36 hr 6 min 49 sec) 
 Total Blocks : 262144 Invalid Blocks : 0
Heartbeat CPU 2 instructions: 160000002 cycles: 70413355 heartbeat IPC: 2.5799 cumulative IPC: 2.2723 (Simulation time: 36 hr 6 min 49 sec) 
 Total Blocks : 262144 Invalid Blocks : 0
Heartbeat CPU 4 instructions: 160000002 cycles: 70414340 heartbeat IPC: 2.57979 cumulative IPC: 2.27226 (Simulation time: 36 hr 6 min 50 sec) 
 Total Blocks : 262144 Invalid Blocks : 0
Heartbeat CPU 5 instructions: 160000002 cycles: 70415501 heartbeat IPC: 2.57955 cumulative IPC: 2.27223 (Simulation time: 36 hr 6 min 51 sec) 
 Total Blocks : 262144 Invalid Blocks : 0
Heartbeat CPU 3 instructions: 170000002 cycles: 74288175 heartbeat IPC: 2.57933 cumulative IPC: 2.28839 (Simulation time: 37 hr 42 min 56 sec) 
 Total Blocks : 262144 Invalid Blocks : 0
Heartbeat CPU 0 instructions: 170000002 cycles: 74289238 heartbeat IPC: 2.57931 cumulative IPC: 2.28835 (Simulation time: 37 hr 42 min 59 sec) 
 Total Blocks : 262144 Invalid Blocks : 0
Heartbeat CPU 1 instructions: 170000002 cycles: 74290075 heartbeat IPC: 2.57931 cumulative IPC: 2.28833 (Simulation time: 37 hr 43 min 0 sec) 
 Total Blocks : 262144 Invalid Blocks : 0
Heartbeat CPU 7 instructions: 170000002 cycles: 74290077 heartbeat IPC: 2.57936 cumulative IPC: 2.28833 (Simulation time: 37 hr 43 min 0 sec) 
 Total Blocks : 262144 Invalid Blocks : 0
Heartbeat CPU 6 instructions: 170000002 cycles: 74290376 heartbeat IPC: 2.57915 cumulative IPC: 2.28832 (Simulation time: 37 hr 43 min 0 sec) 
 Total Blocks : 262144 Invalid Blocks : 0
Heartbeat CPU 2 instructions: 170000002 cycles: 74290391 heartbeat IPC: 2.57929 cumulative IPC: 2.28832 (Simulation time: 37 hr 43 min 0 sec) 
 Total Blocks : 262144 Invalid Blocks : 0
Heartbeat CPU 4 instructions: 170000002 cycles: 74291472 heartbeat IPC: 2.57923 cumulative IPC: 2.28828 (Simulation time: 37 hr 43 min 2 sec) 
 Total Blocks : 262144 Invalid Blocks : 0
Heartbeat CPU 5 instructions: 170000002 cycles: 74292671 heartbeat IPC: 2.5792 cumulative IPC: 2.28825 (Simulation time: 37 hr 43 min 3 sec) 
 Total Blocks : 262144 Invalid Blocks : 0
Heartbeat CPU 3 instructions: 180000000 cycles: 78164484 heartbeat IPC: 2.57977 cumulative IPC: 2.30284 (Simulation time: 39 hr 15 min 29 sec) 
 Total Blocks : 262144 Invalid Blocks : 0
Heartbeat CPU 0 instructions: 180000000 cycles: 78165088 heartbeat IPC: 2.58008 cumulative IPC: 2.30282 (Simulation time: 39 hr 15 min 32 sec) 
 Total Blocks : 262144 Invalid Blocks : 0
Heartbeat CPU 7 instructions: 180000000 cycles: 78166204 heartbeat IPC: 2.57989 cumulative IPC: 2.30279 (Simulation time: 39 hr 15 min 33 sec) 
 Total Blocks : 262144 Invalid Blocks : 0
Heartbeat CPU 1 instructions: 180000000 cycles: 78166273 heartbeat IPC: 2.57985 cumulative IPC: 2.30278 (Simulation time: 39 hr 15 min 33 sec) 
 Total Blocks : 262144 Invalid Blocks : 0
Heartbeat CPU 2 instructions: 180000000 cycles: 78166492 heartbeat IPC: 2.57991 cumulative IPC: 2.30278 (Simulation time: 39 hr 15 min 33 sec) 
 Total Blocks : 262144 Invalid Blocks : 0
Heartbeat CPU 6 instructions: 180000000 cycles: 78166643 heartbeat IPC: 2.5798 cumulative IPC: 2.30277 (Simulation time: 39 hr 15 min 33 sec) 
 Total Blocks : 262144 Invalid Blocks : 0
Heartbeat CPU 4 instructions: 180000000 cycles: 78167581 heartbeat IPC: 2.57991 cumulative IPC: 2.30274 (Simulation time: 39 hr 15 min 34 sec) 
 Total Blocks : 262144 Invalid Blocks : 0
Heartbeat CPU 5 instructions: 180000000 cycles: 78168778 heartbeat IPC: 2.57991 cumulative IPC: 2.30271 (Simulation time: 39 hr 15 min 35 sec) 
 Total Blocks : 262144 Invalid Blocks : 0
Heartbeat CPU 3 instructions: 190000000 cycles: 82040696 heartbeat IPC: 2.57984 cumulative IPC: 2.31592 (Simulation time: 40 hr 46 min 5 sec) 
 Total Blocks : 262144 Invalid Blocks : 0
Heartbeat CPU 0 instructions: 190000000 cycles: 82041174 heartbeat IPC: 2.57992 cumulative IPC: 2.31591 (Simulation time: 40 hr 46 min 7 sec) 
 Total Blocks : 262144 Invalid Blocks : 0
Heartbeat CPU 2 instructions: 190000000 cycles: 82041979 heartbeat IPC: 2.58032 cumulative IPC: 2.31589 (Simulation time: 40 hr 46 min 8 sec) 
 Total Blocks : 262144 Invalid Blocks : 0
Heartbeat CPU 7 instructions: 190000000 cycles: 82042462 heartbeat IPC: 2.57981 cumulative IPC: 2.31587 (Simulation time: 40 hr 46 min 8 sec) 
 Total Blocks : 262144 Invalid Blocks : 0
Heartbeat CPU 1 instructions: 190000000 cycles: 82042907 heartbeat IPC: 2.57956 cumulative IPC: 2.31586 (Simulation time: 40 hr 46 min 8 sec) 
 Total Blocks : 262144 Invalid Blocks : 0
Heartbeat CPU 6 instructions: 190000000 cycles: 82043116 heartbeat IPC: 2.57966 cumulative IPC: 2.31586 (Simulation time: 40 hr 46 min 8 sec) 
 Total Blocks : 262144 Invalid Blocks : 0
Heartbeat CPU 4 instructions: 190000000 cycles: 82043841 heartbeat IPC: 2.57981 cumulative IPC: 2.31583 (Simulation time: 40 hr 46 min 9 sec) 
 Total Blocks : 262144 Invalid Blocks : 0
Heartbeat CPU 5 instructions: 190000000 cycles: 82044833 heartbeat IPC: 2.57994 cumulative IPC: 2.31581 (Simulation time: 40 hr 46 min 10 sec) 
 Total Blocks : 262144 Invalid Blocks : 0
Heartbeat CPU 0 instructions: 200000001 cycles: 85920032 heartbeat IPC: 2.57808 cumulative IPC: 2.32775 (Simulation time: 42 hr 19 min 55 sec) 
 Total Blocks : 262144 Invalid Blocks : 0
Heartbeat CPU 3 instructions: 200000001 cycles: 85920222 heartbeat IPC: 2.57763 cumulative IPC: 2.32774 (Simulation time: 42 hr 19 min 57 sec) 
 Total Blocks : 262144 Invalid Blocks : 0
Heartbeat CPU 2 instructions: 200000001 cycles: 85921142 heartbeat IPC: 2.57788 cumulative IPC: 2.32772 (Simulation time: 42 hr 19 min 59 sec) 
 Total Blocks : 262144 Invalid Blocks : 0
Heartbeat CPU 7 instructions: 200000001 cycles: 85921783 heartbeat IPC: 2.57777 cumulative IPC: 2.3277 (Simulation time: 42 hr 19 min 59 sec) 
 Total Blocks : 262144 Invalid Blocks : 0
Heartbeat CPU 1 instructions: 200000001 cycles: 85922224 heartbeat IPC: 2.57777 cumulative IPC: 2.32769 (Simulation time: 42 hr 19 min 59 sec) 
 Total Blocks : 262144 Invalid Blocks : 0
Heartbeat CPU 6 instructions: 200000001 cycles: 85922399 heartbeat IPC: 2.5778 cumulative IPC: 2.32768 (Simulation time: 42 hr 19 min 59 sec) 
 Total Blocks : 262144 Invalid Blocks : 0
Heartbeat CPU 4 instructions: 200000001 cycles: 85923244 heartbeat IPC: 2.57772 cumulative IPC: 2.32766 (Simulation time: 42 hr 20 min 0 sec) 
 Total Blocks : 262144 Invalid Blocks : 0
Heartbeat CPU 5 instructions: 200000001 cycles: 85923937 heartbeat IPC: 2.57792 cumulative IPC: 2.32764 (Simulation time: 42 hr 20 min 1 sec) 
 Total Blocks : 262144 Invalid Blocks : 0

Warmup complete CPU 0 instructions: 200010031 cycles: 85923937 (Simulation time: 42 hr 20 min 1 sec) 
Warmup complete CPU 1 instructions: 200004294 cycles: 85923937 (Simulation time: 42 hr 20 min 1 sec) 
Warmup complete CPU 2 instructions: 200006978 cycles: 85923937 (Simulation time: 42 hr 20 min 1 sec) 
Warmup complete CPU 3 instructions: 200009591 cycles: 85923937 (Simulation time: 42 hr 20 min 1 sec) 
Warmup complete CPU 4 instructions: 200001824 cycles: 85923937 (Simulation time: 42 hr 20 min 1 sec) 
Warmup complete CPU 5 instructions: 200000001 cycles: 85923937 (Simulation time: 42 hr 20 min 1 sec) 
Warmup complete CPU 6 instructions: 200003764 cycles: 85923936 (Simulation time: 42 hr 20 min 1 sec) 
Warmup complete CPU 7 instructions: 200005697 cycles: 85923936 (Simulation time: 42 hr 20 min 1 sec) 

Heartbeat CPU 6 instructions: 210000002 cycles: 92850172 heartbeat IPC: 1.44347 cumulative IPC: 1.44324 (Simulation time: 43 hr 57 min 43 sec) 
 Total Blocks : 262144 Invalid Blocks : 0
Heartbeat CPU 3 instructions: 210000002 cycles: 92905274 heartbeat IPC: 1.43163 cumulative IPC: 1.43102 (Simulation time: 43 hr 58 min 40 sec) 
 Total Blocks : 262144 Invalid Blocks : 0
Heartbeat CPU 5 instructions: 210000002 cycles: 92926771 heartbeat IPC: 1.42799 cumulative IPC: 1.42799 (Simulation time: 43 hr 58 min 56 sec) 
 Total Blocks : 262144 Invalid Blocks : 0
Heartbeat CPU 4 instructions: 210000002 cycles: 92977932 heartbeat IPC: 1.4175 cumulative IPC: 1.41738 (Simulation time: 43 hr 59 min 42 sec) 
 Total Blocks : 262144 Invalid Blocks : 0
Heartbeat CPU 7 instructions: 210000002 cycles: 93007129 heartbeat IPC: 1.41136 cumulative IPC: 1.41099 (Simulation time: 44 hr 0 min 6 sec) 
 Total Blocks : 262144 Invalid Blocks : 0
Heartbeat CPU 2 instructions: 210000002 cycles: 93038471 heartbeat IPC: 1.40502 cumulative IPC: 1.40459 (Simulation time: 44 hr 0 min 25 sec) 
 Total Blocks : 262144 Invalid Blocks : 0
Heartbeat CPU 1 instructions: 210000002 cycles: 93271512 heartbeat IPC: 1.36068 cumulative IPC: 1.36041 (Simulation time: 44 hr 3 min 49 sec) 
 Total Blocks : 262144 Invalid Blocks : 0
Heartbeat CPU 0 instructions: 210000002 cycles: 93400024 heartbeat IPC: 1.3369 cumulative IPC: 1.33626 (Simulation time: 44 hr 5 min 45 sec) 
 Total Blocks : 262144 Invalid Blocks : 0
Heartbeat CPU 3 instructions: 220000000 cycles: 99873880 heartbeat IPC: 1.43501 cumulative IPC: 1.43301 (Simulation time: 45 hr 36 min 12 sec) 
 Total Blocks : 262144 Invalid Blocks : 0
Heartbeat CPU 5 instructions: 220000000 cycles: 99888947 heartbeat IPC: 1.43633 cumulative IPC: 1.43215 (Simulation time: 45 hr 36 min 23 sec) 
 Total Blocks : 262144 Invalid Blocks : 0
Heartbeat CPU 4 instructions: 220000000 cycles: 99929393 heartbeat IPC: 1.43855 cumulative IPC: 1.42788 (Simulation time: 45 hr 36 min 47 sec) 
 Total Blocks : 262144 Invalid Blocks : 0
Heartbeat CPU 6 instructions: 220000000 cycles: 99942273 heartbeat IPC: 1.41002 cumulative IPC: 1.42643 (Simulation time: 45 hr 36 min 55 sec) 
 Total Blocks : 262144 Invalid Blocks : 0
Heartbeat CPU 7 instructions: 220000000 cycles: 100059450 heartbeat IPC: 1.41797 cumulative IPC: 1.41447 (Simulation time: 45 hr 38 min 42 sec) 
 Total Blocks : 262144 Invalid Blocks : 0
Heartbeat CPU 2 instructions: 220000000 cycles: 100090296 heartbeat IPC: 1.41807 cumulative IPC: 1.4113 (Simulation time: 45 hr 39 min 0 sec) 
 Total Blocks : 262144 Invalid Blocks : 0
Heartbeat CPU 1 instructions: 220000000 cycles: 100433391 heartbeat IPC: 1.39628 cumulative IPC: 1.37812 (Simulation time: 45 hr 43 min 59 sec) 
 Total Blocks : 262144 Invalid Blocks : 0
Heartbeat CPU 0 instructions: 220000000 cycles: 100488342 heartbeat IPC: 1.41077 cumulative IPC: 1.37252 (Simulation time: 45 hr 44 min 44 sec) 
 Total Blocks : 262144 Invalid Blocks : 0
Heartbeat CPU 4 instructions: 230000001 cycles: 106959888 heartbeat IPC: 1.42238 cumulative IPC: 1.42604 (Simulation time: 47 hr 3 min 27 sec) 
 Total Blocks : 262144 Invalid Blocks : 0
Heartbeat CPU 5 instructions: 230000001 cycles: 106973724 heartbeat IPC: 1.41148 cumulative IPC: 1.42519 (Simulation time: 47 hr 3 min 33 sec) 
 Total Blocks : 262144 Invalid Blocks : 0
Heartbeat CPU 3 instructions: 230000001 cycles: 106978992 heartbeat IPC: 1.40744 cumulative IPC: 1.42438 (Simulation time: 47 hr 3 min 36 sec) 
 Total Blocks : 262144 Invalid Blocks : 0
Heartbeat CPU 2 instructions: 230000001 cycles: 107144627 heartbeat IPC: 1.41757 cumulative IPC: 1.41339 (Simulation time: 47 hr 5 min 45 sec) 
 Total Blocks : 262144 Invalid Blocks : 0
Heartbeat CPU 6 instructions: 230000001 cycles: 107180310 heartbeat IPC: 1.38159 cumulative IPC: 1.41116 (Simulation time: 47 hr 6 min 7 sec) 
 Total Blocks : 262144 Invalid Blocks : 0
Heartbeat CPU 7 instructions: 230000001 cycles: 107401511 heartbeat IPC: 1.36202 cumulative IPC: 1.39654 (Simulation time: 47 hr 8 min 43 sec) 
 Total Blocks : 262144 Invalid Blocks : 0
Heartbeat CPU 0 instructions: 230000001 cycles: 107581214 heartbeat IPC: 1.40987 cumulative IPC: 1.38475 (Simulation time: 47 hr 11 min 22 sec) 
 Total Blocks : 262144 Invalid Blocks : 0
Heartbeat CPU 1 instructions: 230000000 cycles: 107615380 heartbeat IPC: 1.39237 cumulative IPC: 1.38284 (Simulation time: 47 hr 11 min 42 sec) 
 Total Blocks : 262144 Invalid Blocks : 0
Heartbeat CPU 3 instructions: 240000003 cycles: 114224790 heartbeat IPC: 1.38011 cumulative IPC: 1.41305 (Simulation time: 48 hr 35 min 53 sec) 
 Total Blocks : 262144 Invalid Blocks : 0
Heartbeat CPU 4 instructions: 240000003 cycles: 114232026 heartbeat IPC: 1.37511 cumulative IPC: 1.41296 (Simulation time: 48 hr 35 min 57 sec) 
 Total Blocks : 262144 Invalid Blocks : 0
Heartbeat CPU 5 instructions: 240000003 cycles: 114245572 heartbeat IPC: 1.37517 cumulative IPC: 1.41235 (Simulation time: 48 hr 36 min 5 sec) 
 Total Blocks : 262144 Invalid Blocks : 0
Heartbeat CPU 2 instructions: 240000003 cycles: 114406402 heartbeat IPC: 1.37707 cumulative IPC: 1.40413 (Simulation time: 48 hr 38 min 5 sec) 
 Total Blocks : 262144 Invalid Blocks : 0
Heartbeat CPU 6 instructions: 240000003 cycles: 114433001 heartbeat IPC: 1.3788 cumulative IPC: 1.40293 (Simulation time: 48 hr 38 min 21 sec) 
 Total Blocks : 262144 Invalid Blocks : 0
Heartbeat CPU 7 instructions: 240000003 cycles: 114903619 heartbeat IPC: 1.33296 cumulative IPC: 1.38008 (Simulation time: 48 hr 44 min 34 sec) 
 Total Blocks : 262144 Invalid Blocks : 0
Heartbeat CPU 0 instructions: 240000003 cycles: 114920628 heartbeat IPC: 1.36251 cumulative IPC: 1.37912 (Simulation time: 48 hr 44 min 43 sec) 
 Total Blocks : 262144 Invalid Blocks : 0
Heartbeat CPU 1 instructions: 240000003 cycles: 115183962 heartbeat IPC: 1.32125 cumulative IPC: 1.36691 (Simulation time: 48 hr 47 min 47 sec) 
 Total Blocks : 262144 Invalid Blocks : 0
Heartbeat CPU 3 instructions: 250000002 cycles: 121191650 heartbeat IPC: 1.43537 cumulative IPC: 1.41746 (Simulation time: 50 hr 2 min 1 sec) 
 Total Blocks : 262144 Invalid Blocks : 0
Heartbeat CPU 4 instructions: 250000002 cycles: 121460775 heartbeat IPC: 1.38337 cumulative IPC: 1.40694 (Simulation time: 50 hr 5 min 8 sec) 
 Total Blocks : 262144 Invalid Blocks : 0
Heartbeat CPU 5 instructions: 250000003 cycles: 121491577 heartbeat IPC: 1.38007 cumulative IPC: 1.40577 (Simulation time: 50 hr 5 min 29 sec) 
 Total Blocks : 262144 Invalid Blocks : 0
Heartbeat CPU 2 instructions: 250000002 cycles: 121495802 heartbeat IPC: 1.41056 cumulative IPC: 1.40541 (Simulation time: 50 hr 5 min 33 sec) 
 Total Blocks : 262144 Invalid Blocks : 0
Heartbeat CPU 6 instructions: 250000002 cycles: 121662856 heartbeat IPC: 1.38315 cumulative IPC: 1.39893 (Simulation time: 50 hr 7 min 43 sec) 
 Total Blocks : 262144 Invalid Blocks : 0
Heartbeat CPU 7 instructions: 250000003 cycles: 122109995 heartbeat IPC: 1.38766 cumulative IPC: 1.38159 (Simulation time: 50 hr 12 min 49 sec) 
 Total Blocks : 262144 Invalid Blocks : 0
Heartbeat CPU 0 instructions: 250000003 cycles: 122127730 heartbeat IPC: 1.38752 cumulative IPC: 1.38079 (Simulation time: 50 hr 13 min 3 sec) 
 Total Blocks : 262144 Invalid Blocks : 0
Heartbeat CPU 1 instructions: 250000002 cycles: 122344108 heartbeat IPC: 1.39662 cumulative IPC: 1.37275 (Simulation time: 50 hr 15 min 20 sec) 
 Total Blocks : 262144 Invalid Blocks : 0
Heartbeat CPU 3 instructions: 260000000 cycles: 128275490 heartbeat IPC: 1.41166 cumulative IPC: 1.41649 (Simulation time: 51 hr 25 min 2 sec) 
 Total Blocks : 262144 Invalid Blocks : 0
Heartbeat CPU 5 instructions: 260000000 cycles: 128457570 heartbeat IPC: 1.43555 cumulative IPC: 1.41065 (Simulation time: 51 hr 27 min 19 sec) 
 Total Blocks : 262144 Invalid Blocks : 0
Heartbeat CPU 6 instructions: 260000000 cycles: 128710294 heartbeat IPC: 1.41896 cumulative IPC: 1.40223 (Simulation time: 51 hr 30 min 12 sec) 
 Total Blocks : 262144 Invalid Blocks : 0
Heartbeat CPU 4 instructions: 260000000 cycles: 128866358 heartbeat IPC: 1.35033 cumulative IPC: 1.39718 (Simulation time: 51 hr 32 min 11 sec) 
 Total Blocks : 262144 Invalid Blocks : 0
Heartbeat CPU 2 instructions: 260000000 cycles: 128903629 heartbeat IPC: 1.34992 cumulative IPC: 1.39585 (Simulation time: 51 hr 32 min 33 sec) 
 Total Blocks : 262144 Invalid Blocks : 0
Heartbeat CPU 7 instructions: 260000000 cycles: 129190336 heartbeat IPC: 1.41236 cumulative IPC: 1.38663 (Simulation time: 51 hr 35 min 46 sec) 
 Total Blocks : 262144 Invalid Blocks : 0
Heartbeat CPU 0 instructions: 260000001 cycles: 129297905 heartbeat IPC: 1.39467 cumulative IPC: 1.38309 (Simulation time: 51 hr 36 min 53 sec) 
 Total Blocks : 262144 Invalid Blocks : 0
Heartbeat CPU 1 instructions: 260000000 cycles: 129412409 heartbeat IPC: 1.41477 cumulative IPC: 1.37958 (Simulation time: 51 hr 38 min 25 sec) 
 Total Blocks : 262144 Invalid Blocks : 0
Heartbeat CPU 3 instructions: 270000002 cycles: 135249805 heartbeat IPC: 1.43383 cumulative IPC: 1.41894 (Simulation time: 52 hr 47 min 22 sec) 
 Total Blocks : 262144 Invalid Blocks : 0
Heartbeat CPU 5 instructions: 270000002 cycles: 135405758 heartbeat IPC: 1.43922 cumulative IPC: 1.41466 (Simulation time: 52 hr 49 min 10 sec) 
 Total Blocks : 262144 Invalid Blocks : 0
Heartbeat CPU 6 instructions: 270000002 cycles: 135697118 heartbeat IPC: 1.43127 cumulative IPC: 1.4063 (Simulation time: 52 hr 52 min 31 sec) 
 Total Blocks : 262144 Invalid Blocks : 0
Heartbeat CPU 2 instructions: 270000002 cycles: 136058505 heartbeat IPC: 1.39765 cumulative IPC: 1.3961 (Simulation time: 52 hr 56 min 47 sec) 
 Total Blocks : 262144 Invalid Blocks : 0
Heartbeat CPU 4 instructions: 270000002 cycles: 136129280 heartbeat IPC: 1.37686 cumulative IPC: 1.39424 (Simulation time: 52 hr 57 min 23 sec) 
 Total Blocks : 262144 Invalid Blocks : 0
Heartbeat CPU 7 instructions: 270000002 cycles: 136308660 heartbeat IPC: 1.40483 cumulative IPC: 1.3892 (Simulation time: 52 hr 59 min 43 sec) 
 Total Blocks : 262144 Invalid Blocks : 0
Heartbeat CPU 1 instructions: 270000002 cycles: 136405943 heartbeat IPC: 1.42989 cumulative IPC: 1.38655 (Simulation time: 53 hr 0 min 44 sec) 
 Total Blocks : 262144 Invalid Blocks : 0
Heartbeat CPU 0 instructions: 270000003 cycles: 136621873 heartbeat IPC: 1.36538 cumulative IPC: 1.38053 (Simulation time: 53 hr 3 min 24 sec) 
 Total Blocks : 262144 Invalid Blocks : 0
Heartbeat CPU 3 instructions: 280000000 cycles: 142230677 heartbeat IPC: 1.43249 cumulative IPC: 1.42062 (Simulation time: 54 hr 9 min 27 sec) 
 Total Blocks : 262144 Invalid Blocks : 0
Heartbeat CPU 5 instructions: 280000000 cycles: 142435578 heartbeat IPC: 1.42251 cumulative IPC: 1.41564 (Simulation time: 54 hr 11 min 39 sec) 
 Total Blocks : 262144 Invalid Blocks : 0
Heartbeat CPU 6 instructions: 280000000 cycles: 142695364 heartbeat IPC: 1.42893 cumulative IPC: 1.40909 (Simulation time: 54 hr 14 min 46 sec) 
 Total Blocks : 262144 Invalid Blocks : 0
Heartbeat CPU 2 instructions: 280000000 cycles: 143158305 heartbeat IPC: 1.40849 cumulative IPC: 1.39764 (Simulation time: 54 hr 19 min 54 sec) 
 Total Blocks : 262144 Invalid Blocks : 0
Heartbeat CPU 4 instructions: 280000000 cycles: 143215369 heartbeat IPC: 1.41122 cumulative IPC: 1.39634 (Simulation time: 54 hr 20 min 46 sec) 
 Total Blocks : 262144 Invalid Blocks : 0
Heartbeat CPU 7 instructions: 280000000 cycles: 143243464 heartbeat IPC: 1.442 cumulative IPC: 1.39559 (Simulation time: 54 hr 21 min 5 sec) 
 Total Blocks : 262144 Invalid Blocks : 0
Heartbeat CPU 1 instructions: 280000000 cycles: 143296830 heartbeat IPC: 1.45119 cumulative IPC: 1.39431 (Simulation time: 54 hr 21 min 36 sec) 
 Total Blocks : 262144 Invalid Blocks : 0
Heartbeat CPU 0 instructions: 280000000 cycles: 143857246 heartbeat IPC: 1.3821 cumulative IPC: 1.38073 (Simulation time: 54 hr 27 min 52 sec) 
 Total Blocks : 262144 Invalid Blocks : 0
Heartbeat CPU 3 instructions: 290000000 cycles: 149174974 heartbeat IPC: 1.44003 cumulative IPC: 1.42275 (Simulation time: 55 hr 26 min 47 sec) 
 Total Blocks : 262144 Invalid Blocks : 0
Heartbeat CPU 6 instructions: 290000000 cycles: 149666522 heartbeat IPC: 1.43448 cumulative IPC: 1.41187 (Simulation time: 55 hr 32 min 28 sec) 
 Total Blocks : 262144 Invalid Blocks : 0
Heartbeat CPU 5 instructions: 290000000 cycles: 149673622 heartbeat IPC: 1.38159 cumulative IPC: 1.41177 (Simulation time: 55 hr 32 min 32 sec) 
 Total Blocks : 262144 Invalid Blocks : 0
Heartbeat CPU 7 instructions: 290000000 cycles: 150130401 heartbeat IPC: 1.45202 cumulative IPC: 1.40164 (Simulation time: 55 hr 37 min 23 sec) 
 Total Blocks : 262144 Invalid Blocks : 0
Heartbeat CPU 2 instructions: 290000000 cycles: 150151227 heartbeat IPC: 1.43002 cumulative IPC: 1.40116 (Simulation time: 55 hr 37 min 31 sec) 
 Total Blocks : 262144 Invalid Blocks : 0
Heartbeat CPU 4 instructions: 290000000 cycles: 150209677 heartbeat IPC: 1.42973 cumulative IPC: 1.39997 (Simulation time: 55 hr 37 min 58 sec) 
 Total Blocks : 262144 Invalid Blocks : 0
Heartbeat CPU 1 instructions: 290000000 cycles: 150396018 heartbeat IPC: 1.40861 cumulative IPC: 1.39589 (Simulation time: 55 hr 40 min 26 sec) 
 Total Blocks : 262144 Invalid Blocks : 0
Heartbeat CPU 0 instructions: 290000001 cycles: 151051386 heartbeat IPC: 1.39002 cumulative IPC: 1.38175 (Simulation time: 55 hr 47 min 41 sec) 
 Total Blocks : 262144 Invalid Blocks : 0
Heartbeat CPU 3 instructions: 300000000 cycles: 156113986 heartbeat IPC: 1.44113 cumulative IPC: 1.42457 (Simulation time: 56 hr 41 min 30 sec) 
 Total Blocks : 262144 Invalid Blocks : 0
Heartbeat CPU 5 instructions: 300000002 cycles: 156527298 heartbeat IPC: 1.45907 cumulative IPC: 1.41636 (Simulation time: 56 hr 45 min 57 sec) 
 Total Blocks : 262144 Invalid Blocks : 0
Heartbeat CPU 6 instructions: 300000000 cycles: 156654500 heartbeat IPC: 1.43103 cumulative IPC: 1.41376 (Simulation time: 56 hr 47 min 32 sec) 
 Total Blocks : 262144 Invalid Blocks : 0
Heartbeat CPU 7 instructions: 300000000 cycles: 157005295 heartbeat IPC: 1.45457 cumulative IPC: 1.40676 (Simulation time: 56 hr 51 min 18 sec) 
 Total Blocks : 262144 Invalid Blocks : 0
Heartbeat CPU 2 instructions: 300000002 cycles: 157076066 heartbeat IPC: 1.44408 cumulative IPC: 1.40534 (Simulation time: 56 hr 52 min 2 sec) 
 Total Blocks : 262144 Invalid Blocks : 0
Heartbeat CPU 4 instructions: 300000002 cycles: 157177286 heartbeat IPC: 1.43521 cumulative IPC: 1.40342 (Simulation time: 56 hr 53 min 2 sec) 
 Total Blocks : 262144 Invalid Blocks : 0
Heartbeat CPU 1 instructions: 300000002 cycles: 157901589 heartbeat IPC: 1.33234 cumulative IPC: 1.38926 (Simulation time: 57 hr 1 min 1 sec) 
 Total Blocks : 262144 Invalid Blocks : 0
Heartbeat CPU 0 instructions: 300000000 cycles: 158485588 heartbeat IPC: 1.34513 cumulative IPC: 1.378 (Simulation time: 57 hr 7 min 5 sec) 
 Total Blocks : 262144 Invalid Blocks : 0
Heartbeat CPU 3 instructions: 310000000 cycles: 163165776 heartbeat IPC: 1.41808 cumulative IPC: 1.42397 (Simulation time: 57 hr 55 min 20 sec) 
 Total Blocks : 262144 Invalid Blocks : 0
Heartbeat CPU 5 instructions: 310000000 cycles: 163518495 heartbeat IPC: 1.43037 cumulative IPC: 1.41763 (Simulation time: 57 hr 58 min 29 sec) 
 Total Blocks : 262144 Invalid Blocks : 0
Heartbeat CPU 6 instructions: 310000000 cycles: 163703588 heartbeat IPC: 1.41862 cumulative IPC: 1.4142 (Simulation time: 58 hr 0 min 22 sec) 
 Total Blocks : 262144 Invalid Blocks : 0
Heartbeat CPU 7 instructions: 310000000 cycles: 164015101 heartbeat IPC: 1.42657 cumulative IPC: 1.40854 (Simulation time: 58 hr 3 min 35 sec) 
 Total Blocks : 262144 Invalid Blocks : 0
Heartbeat CPU 4 instructions: 310000000 cycles: 164118390 heartbeat IPC: 1.44069 cumulative IPC: 1.40673 (Simulation time: 58 hr 4 min 45 sec) 
 Total Blocks : 262144 Invalid Blocks : 0
Heartbeat CPU 2 instructions: 310000000 cycles: 164130303 heartbeat IPC: 1.41759 cumulative IPC: 1.40645 (Simulation time: 58 hr 4 min 53 sec) 
 Total Blocks : 262144 Invalid Blocks : 0
Heartbeat CPU 1 instructions: 310000000 cycles: 165008918 heartbeat IPC: 1.407 cumulative IPC: 1.39085 (Simulation time: 58 hr 14 min 14 sec) 
 Total Blocks : 262144 Invalid Blocks : 0
Heartbeat CPU 0 instructions: 310000000 cycles: 165636659 heartbeat IPC: 1.39839 cumulative IPC: 1.37983 (Simulation time: 58 hr 20 min 50 sec) 
 Total Blocks : 262144 Invalid Blocks : 0
Heartbeat CPU 3 instructions: 320000001 cycles: 170110065 heartbeat IPC: 1.44003 cumulative IPC: 1.4253 (Simulation time: 59 hr 6 min 47 sec) 
 Total Blocks : 262144 Invalid Blocks : 0
Heartbeat CPU 5 instructions: 320000001 cycles: 170478738 heartbeat IPC: 1.43673 cumulative IPC: 1.4192 (Simulation time: 59 hr 10 min 40 sec) 
 Total Blocks : 262144 Invalid Blocks : 0
Heartbeat CPU 6 instructions: 320000001 cycles: 170783422 heartbeat IPC: 1.41246 cumulative IPC: 1.41406 (Simulation time: 59 hr 14 min 1 sec) 
 Total Blocks : 262144 Invalid Blocks : 0
Heartbeat CPU 4 instructions: 320000001 cycles: 171079433 heartbeat IPC: 1.43657 cumulative IPC: 1.40917 (Simulation time: 59 hr 16 min 47 sec) 
 Total Blocks : 262144 Invalid Blocks : 0
Heartbeat CPU 2 instructions: 320000001 cycles: 171135883 heartbeat IPC: 1.42743 cumulative IPC: 1.40817 (Simulation time: 59 hr 17 min 13 sec) 
 Total Blocks : 262144 Invalid Blocks : 0
Heartbeat CPU 7 instructions: 320000003 cycles: 171214253 heartbeat IPC: 1.38905 cumulative IPC: 1.40689 (Simulation time: 59 hr 17 min 58 sec) 
 Total Blocks : 262144 Invalid Blocks : 0
Heartbeat CPU 1 instructions: 320000001 cycles: 172103630 heartbeat IPC: 1.4095 cumulative IPC: 1.39239 (Simulation time: 59 hr 27 min 1 sec) 
 Total Blocks : 262144 Invalid Blocks : 0
Heartbeat CPU 0 instructions: 320000002 cycles: 172672804 heartbeat IPC: 1.42123 cumulative IPC: 1.38319 (Simulation time: 59 hr 32 min 42 sec) 
 Total Blocks : 262144 Invalid Blocks : 0
Heartbeat CPU 3 instructions: 330000000 cycles: 177134132 heartbeat IPC: 1.42368 cumulative IPC: 1.42517 (Simulation time: 60 hr 16 min 58 sec) 
 Total Blocks : 262144 Invalid Blocks : 0
Heartbeat CPU 5 instructions: 330000000 cycles: 177461506 heartbeat IPC: 1.4321 cumulative IPC: 1.42018 (Simulation time: 60 hr 19 min 55 sec) 
 Total Blocks : 262144 Invalid Blocks : 0
Heartbeat CPU 6 instructions: 330000000 cycles: 177927689 heartbeat IPC: 1.39972 cumulative IPC: 1.41294 (Simulation time: 60 hr 24 min 31 sec) 
 Total Blocks : 262144 Invalid Blocks : 0
Heartbeat CPU 4 instructions: 330000000 cycles: 178034569 heartbeat IPC: 1.43779 cumulative IPC: 1.41133 (Simulation time: 60 hr 25 min 16 sec) 
 Total Blocks : 262144 Invalid Blocks : 0
Heartbeat CPU 2 instructions: 330000000 cycles: 178096381 heartbeat IPC: 1.43668 cumulative IPC: 1.41032 (Simulation time: 60 hr 25 min 43 sec) 
 Total Blocks : 262144 Invalid Blocks : 0
Heartbeat CPU 7 instructions: 330000000 cycles: 178320496 heartbeat IPC: 1.40721 cumulative IPC: 1.40692 (Simulation time: 60 hr 28 min 7 sec) 
 Total Blocks : 262144 Invalid Blocks : 0
Heartbeat CPU 1 instructions: 330000000 cycles: 179208921 heartbeat IPC: 1.4074 cumulative IPC: 1.39353 (Simulation time: 60 hr 36 min 28 sec) 
 Total Blocks : 262144 Invalid Blocks : 0
Heartbeat CPU 0 instructions: 330000000 cycles: 179881081 heartbeat IPC: 1.38729 cumulative IPC: 1.3835 (Simulation time: 60 hr 43 min 4 sec) 
 Total Blocks : 262144 Invalid Blocks : 0
Heartbeat CPU 3 instructions: 340000002 cycles: 184302325 heartbeat IPC: 1.39505 cumulative IPC: 1.42298 (Simulation time: 61 hr 22 min 38 sec) 
 Total Blocks : 262144 Invalid Blocks : 0
Heartbeat CPU 5 instructions: 340000002 cycles: 184905075 heartbeat IPC: 1.34344 cumulative IPC: 1.41441 (Simulation time: 61 hr 28 min 17 sec) 
 Total Blocks : 262144 Invalid Blocks : 0
Heartbeat CPU 6 instructions: 340000002 cycles: 185345219 heartbeat IPC: 1.34816 cumulative IPC: 1.40811 (Simulation time: 61 hr 32 min 10 sec) 
 Total Blocks : 262144 Invalid Blocks : 0
Heartbeat CPU 4 instructions: 340000002 cycles: 185359202 heartbeat IPC: 1.36526 cumulative IPC: 1.40793 (Simulation time: 61 hr 32 min 15 sec) 
 Total Blocks : 262144 Invalid Blocks : 0
Heartbeat CPU 2 instructions: 340000002 cycles: 185594603 heartbeat IPC: 1.33365 cumulative IPC: 1.40456 (Simulation time: 61 hr 33 min 51 sec) 
 Total Blocks : 262144 Invalid Blocks : 0
Heartbeat CPU 7 instructions: 340000002 cycles: 185632372 heartbeat IPC: 1.36764 cumulative IPC: 1.40404 (Simulation time: 61 hr 34 min 9 sec) 
 Total Blocks : 262144 Invalid Blocks : 0
Heartbeat CPU 1 instructions: 340000002 cycles: 186597922 heartbeat IPC: 1.35336 cumulative IPC: 1.39058 (Simulation time: 61 hr 42 min 56 sec) 
 Total Blocks : 262144 Invalid Blocks : 0
Heartbeat CPU 0 instructions: 340000002 cycles: 187445350 heartbeat IPC: 1.32201 cumulative IPC: 1.37892 (Simulation time: 61 hr 50 min 35 sec) 
 Total Blocks : 262144 Invalid Blocks : 0
Heartbeat CPU 3 instructions: 350000003 cycles: 191315530 heartbeat IPC: 1.42588 cumulative IPC: 1.42317 (Simulation time: 62 hr 25 min 4 sec) 
 Total Blocks : 262144 Invalid Blocks : 0
Heartbeat CPU 5 instructions: 350000003 cycles: 191903501 heartbeat IPC: 1.42889 cumulative IPC: 1.41537 (Simulation time: 62 hr 30 min 19 sec) 
 Total Blocks : 262144 Invalid Blocks : 0
Heartbeat CPU 6 instructions: 350000003 cycles: 192371757 heartbeat IPC: 1.42318 cumulative IPC: 1.40911 (Simulation time: 62 hr 34 min 39 sec) 
 Total Blocks : 262144 Invalid Blocks : 0
Heartbeat CPU 4 instructions: 350000003 cycles: 192602560 heartbeat IPC: 1.38058 cumulative IPC: 1.40608 (Simulation time: 62 hr 36 min 15 sec) 
 Total Blocks : 262144 Invalid Blocks : 0
Heartbeat CPU 7 instructions: 350000003 cycles: 192798913 heartbeat IPC: 1.39537 cumulative IPC: 1.40346 (Simulation time: 62 hr 37 min 59 sec) 
 Total Blocks : 262144 Invalid Blocks : 0
Heartbeat CPU 2 instructions: 350000003 cycles: 192812718 heartbeat IPC: 1.3854 cumulative IPC: 1.40326 (Simulation time: 62 hr 38 min 4 sec) 
 Total Blocks : 262144 Invalid Blocks : 0
Heartbeat CPU 1 instructions: 350000003 cycles: 193717246 heartbeat IPC: 1.40463 cumulative IPC: 1.39151 (Simulation time: 62 hr 46 min 2 sec) 
 Total Blocks : 262144 Invalid Blocks : 0
Heartbeat CPU 0 instructions: 350000003 cycles: 194975469 heartbeat IPC: 1.328 cumulative IPC: 1.3754 (Simulation time: 62 hr 56 min 39 sec) 
 Total Blocks : 262144 Invalid Blocks : 0
Heartbeat CPU 3 instructions: 360000002 cycles: 198509271 heartbeat IPC: 1.3901 cumulative IPC: 1.42106 (Simulation time: 63 hr 26 min 50 sec) 
 Total Blocks : 262144 Invalid Blocks : 0
Heartbeat CPU 5 instructions: 360000002 cycles: 198898722 heartbeat IPC: 1.42955 cumulative IPC: 1.41625 (Simulation time: 63 hr 29 min 53 sec) 
 Total Blocks : 262144 Invalid Blocks : 0
Heartbeat CPU 6 instructions: 360000002 cycles: 199331908 heartbeat IPC: 1.43675 cumulative IPC: 1.4108 (Simulation time: 63 hr 34 min 0 sec) 
 Total Blocks : 262144 Invalid Blocks : 0
Heartbeat CPU 7 instructions: 360000002 cycles: 199884538 heartbeat IPC: 1.41131 cumulative IPC: 1.40394 (Simulation time: 63 hr 38 min 42 sec) 
 Total Blocks : 262144 Invalid Blocks : 0
Heartbeat CPU 4 instructions: 360000002 cycles: 199959663 heartbeat IPC: 1.35923 cumulative IPC: 1.40305 (Simulation time: 63 hr 39 min 15 sec) 
 Total Blocks : 262144 Invalid Blocks : 0
Heartbeat CPU 2 instructions: 360000002 cycles: 200148160 heartbeat IPC: 1.36324 cumulative IPC: 1.40069 (Simulation time: 63 hr 40 min 51 sec) 
 Total Blocks : 262144 Invalid Blocks : 0
Heartbeat CPU 1 instructions: 360000002 cycles: 200948124 heartbeat IPC: 1.38296 cumulative IPC: 1.39097 (Simulation time: 63 hr 47 min 44 sec) 
 Total Blocks : 262144 Invalid Blocks : 0
Heartbeat CPU 0 instructions: 360000002 cycles: 202185967 heartbeat IPC: 1.38687 cumulative IPC: 1.37612 (Simulation time: 63 hr 58 min 17 sec) 
 Total Blocks : 262144 Invalid Blocks : 0
Heartbeat CPU 3 instructions: 370000003 cycles: 205427512 heartbeat IPC: 1.44545 cumulative IPC: 1.42247 (Simulation time: 64 hr 26 min 12 sec) 
 Total Blocks : 262144 Invalid Blocks : 0
Heartbeat CPU 5 instructions: 370000003 cycles: 205997509 heartbeat IPC: 1.40869 cumulative IPC: 1.4158 (Simulation time: 64 hr 30 min 59 sec) 
 Total Blocks : 262144 Invalid Blocks : 0
Heartbeat CPU 6 instructions: 370000003 cycles: 206259352 heartbeat IPC: 1.44353 cumulative IPC: 1.41269 (Simulation time: 64 hr 33 min 2 sec) 
 Total Blocks : 262144 Invalid Blocks : 0
Heartbeat CPU 7 instructions: 370000003 cycles: 206873316 heartbeat IPC: 1.43087 cumulative IPC: 1.4055 (Simulation time: 64 hr 37 min 54 sec) 
 Total Blocks : 262144 Invalid Blocks : 0
Heartbeat CPU 4 instructions: 370000003 cycles: 207240578 heartbeat IPC: 1.37345 cumulative IPC: 1.40128 (Simulation time: 64 hr 40 min 42 sec) 
 Total Blocks : 262144 Invalid Blocks : 0
Heartbeat CPU 2 instructions: 370000003 cycles: 207505726 heartbeat IPC: 1.35915 cumulative IPC: 1.39818 (Simulation time: 64 hr 42 min 42 sec) 
 Total Blocks : 262144 Invalid Blocks : 0
Heartbeat CPU 1 instructions: 370000003 cycles: 207901836 heartbeat IPC: 1.43808 cumulative IPC: 1.39366 (Simulation time: 64 hr 45 min 52 sec) 
 Total Blocks : 262144 Invalid Blocks : 0
Heartbeat CPU 0 instructions: 370000003 cycles: 209427252 heartbeat IPC: 1.38097 cumulative IPC: 1.3764 (Simulation time: 64 hr 57 min 58 sec) 
 Total Blocks : 262144 Invalid Blocks : 0
Heartbeat CPU 3 instructions: 380000001 cycles: 212466600 heartbeat IPC: 1.42064 cumulative IPC: 1.42237 (Simulation time: 65 hr 21 min 31 sec) 
 Total Blocks : 262144 Invalid Blocks : 0
Heartbeat CPU 5 instructions: 380000001 cycles: 213087867 heartbeat IPC: 1.41037 cumulative IPC: 1.4155 (Simulation time: 65 hr 26 min 14 sec) 
 Total Blocks : 262144 Invalid Blocks : 0
Heartbeat CPU 6 instructions: 380000001 cycles: 213409457 heartbeat IPC: 1.39858 cumulative IPC: 1.4119 (Simulation time: 65 hr 28 min 33 sec) 
 Total Blocks : 262144 Invalid Blocks : 0
Heartbeat CPU 7 instructions: 380000001 cycles: 213923274 heartbeat IPC: 1.41845 cumulative IPC: 1.40621 (Simulation time: 65 hr 32 min 47 sec) 
 Total Blocks : 262144 Invalid Blocks : 0
Heartbeat CPU 4 instructions: 380000001 cycles: 214343966 heartbeat IPC: 1.40778 cumulative IPC: 1.40164 (Simulation time: 65 hr 35 min 57 sec) 
 Total Blocks : 262144 Invalid Blocks : 0
Heartbeat CPU 1 instructions: 380000001 cycles: 214914795 heartbeat IPC: 1.42593 cumulative IPC: 1.39541 (Simulation time: 65 hr 40 min 30 sec) 
 Total Blocks : 262144 Invalid Blocks : 0
Heartbeat CPU 2 instructions: 380000001 cycles: 214946688 heartbeat IPC: 1.34391 cumulative IPC: 1.39505 (Simulation time: 65 hr 40 min 42 sec) 
 Total Blocks : 262144 Invalid Blocks : 0
Heartbeat CPU 0 instructions: 380000001 cycles: 216748070 heartbeat IPC: 1.36597 cumulative IPC: 1.37582 (Simulation time: 65 hr 54 min 48 sec) 
 Total Blocks : 262144 Invalid Blocks : 0
Heartbeat CPU 3 instructions: 390000000 cycles: 219461546 heartbeat IPC: 1.4296 cumulative IPC: 1.42275 (Simulation time: 66 hr 16 min 38 sec) 
 Total Blocks : 262144 Invalid Blocks : 0
Heartbeat CPU 5 instructions: 390000000 cycles: 220055779 heartbeat IPC: 1.43515 cumulative IPC: 1.41652 (Simulation time: 66 hr 20 min 59 sec) 
 Total Blocks : 262144 Invalid Blocks : 0
Heartbeat CPU 6 instructions: 390000000 cycles: 220474394 heartbeat IPC: 1.41544 cumulative IPC: 1.41208 (Simulation time: 66 hr 24 min 33 sec) 
 Total Blocks : 262144 Invalid Blocks : 0
Heartbeat CPU 7 instructions: 390000002 cycles: 221008082 heartbeat IPC: 1.41147 cumulative IPC: 1.40649 (Simulation time: 66 hr 28 min 45 sec) 
 Total Blocks : 262144 Invalid Blocks : 0
Heartbeat CPU 4 instructions: 390000000 cycles: 221314584 heartbeat IPC: 1.43459 cumulative IPC: 1.40333 (Simulation time: 66 hr 31 min 1 sec) 
 Total Blocks : 262144 Invalid Blocks : 0
Heartbeat CPU 2 instructions: 390000002 cycles: 222067466 heartbeat IPC: 1.40434 cumulative IPC: 1.39553 (Simulation time: 66 hr 37 min 1 sec) 
 Total Blocks : 262144 Invalid Blocks : 0
Heartbeat CPU 1 instructions: 390000002 cycles: 222474442 heartbeat IPC: 1.32281 cumulative IPC: 1.3914 (Simulation time: 66 hr 40 min 18 sec) 
 Total Blocks : 262144 Invalid Blocks : 0
Heartbeat CPU 0 instructions: 390000002 cycles: 224609994 heartbeat IPC: 1.27195 cumulative IPC: 1.36993 (Simulation time: 66 hr 57 min 3 sec) 
 Total Blocks : 262144 Invalid Blocks : 0
Heartbeat CPU 3 instructions: 400000000 cycles: 226516913 heartbeat IPC: 1.41736 cumulative IPC: 1.42248 (Simulation time: 67 hr 12 min 15 sec) 
 Total Blocks : 262144 Invalid Blocks : 0
Finished CPU 3 instructions: 200000000 cycles: 140598646 cumulative IPC: 1.42249 (Simulation time: 67 hr 12 min 18 sec) 
Heartbeat CPU 5 instructions: 400000000 cycles: 227127160 heartbeat IPC: 1.41415 cumulative IPC: 1.4164 (Simulation time: 67 hr 17 min 4 sec) 
 Total Blocks : 262144 Invalid Blocks : 0
Finished CPU 5 instructions: 200000003 cycles: 141203225 cumulative IPC: 1.4164 (Simulation time: 67 hr 17 min 5 sec) 
Heartbeat CPU 6 instructions: 400000000 cycles: 227490440 heartbeat IPC: 1.4253 cumulative IPC: 1.41274 (Simulation time: 67 hr 19 min 45 sec) 
 Total Blocks : 262144 Invalid Blocks : 0
Finished CPU 6 instructions: 200000002 cycles: 141568792 cumulative IPC: 1.41274 (Simulation time: 67 hr 19 min 47 sec) 
Heartbeat CPU 7 instructions: 400000003 cycles: 228062603 heartbeat IPC: 1.41753 cumulative IPC: 1.40704 (Simulation time: 67 hr 24 min 27 sec) 
 Total Blocks : 262144 Invalid Blocks : 0
Finished CPU 7 instructions: 200000003 cycles: 142142032 cumulative IPC: 1.40704 (Simulation time: 67 hr 24 min 29 sec) 
Heartbeat CPU 4 instructions: 400000000 cycles: 228342553 heartbeat IPC: 1.42289 cumulative IPC: 1.4043 (Simulation time: 67 hr 26 min 34 sec) 
 Total Blocks : 262144 Invalid Blocks : 0
Finished CPU 4 instructions: 200000002 cycles: 142419675 cumulative IPC: 1.4043 (Simulation time: 67 hr 26 min 37 sec) 
Heartbeat CPU 2 instructions: 400000000 cycles: 229203469 heartbeat IPC: 1.40134 cumulative IPC: 1.39582 (Simulation time: 67 hr 33 min 23 sec) 
 Total Blocks : 262144 Invalid Blocks : 0
Finished CPU 2 instructions: 200000000 cycles: 143283828 cumulative IPC: 1.39583 (Simulation time: 67 hr 33 min 26 sec) 
Heartbeat CPU 1 instructions: 400000000 cycles: 229691534 heartbeat IPC: 1.3856 cumulative IPC: 1.3911 (Simulation time: 67 hr 37 min 18 sec) 
 Total Blocks : 262144 Invalid Blocks : 0
Finished CPU 1 instructions: 200000003 cycles: 143770241 cumulative IPC: 1.39111 (Simulation time: 67 hr 37 min 21 sec) 
Heartbeat CPU 0 instructions: 400000000 cycles: 231980578 heartbeat IPC: 1.35674 cumulative IPC: 1.36926 (Simulation time: 67 hr 56 min 2 sec) 
 Total Blocks : 262144 Invalid Blocks : 0
Finished CPU 0 instructions: 200000001 cycles: 146062620 cumulative IPC: 1.36928 (Simulation time: 67 hr 56 min 4 sec) 

CPU 0 Branch Prediction Accuracy: 99.8486% MPKI: 0.00179491 Average ROB Occupancy at Mispredict: 348.404

CPU 1 Branch Prediction Accuracy: 99.8485% MPKI: 0.00179674 Average ROB Occupancy at Mispredict: 348.463

CPU 2 Branch Prediction Accuracy: 99.8486% MPKI: 0.00179488 Average ROB Occupancy at Mispredict: 348.473

CPU 3 Branch Prediction Accuracy: 99.8486% MPKI: 0.00179507 Average ROB Occupancy at Mispredict: 348.539

CPU 4 Branch Prediction Accuracy: 99.8487% MPKI: 0.00179385 Average ROB Occupancy at Mispredict: 348.492

CPU 5 Branch Prediction Accuracy: 99.8487% MPKI: 0.00179385 Average ROB Occupancy at Mispredict: 348.52

CPU 6 Branch Prediction Accuracy: 99.8484% MPKI: 0.00179764 Average ROB Occupancy at Mispredict: 348.52

CPU 7 Branch Prediction Accuracy: 99.8486% MPKI: 0.00179547 Average ROB Occupancy at Mispredict: 348.501

ChampSim completed all CPUs

Total Simulation Statistics (not including warmup)

CPU 0 cumulative IPC: 1.36928 instructions: 200000001 cycles: 146062620
ITLB TOTAL     ACCESS: 35687520  HIT: 35687520  MISS:     0  HIT %:   100  MISS %:     0  AVERAGE MISS PENALTY: 0
ITLB LOAD      ACCESS: 35687520  HIT: 35687520  MISS:     0  HIT %:   100  MISS %:     0  AVERAGE MISS PENALTY: 0
ITLB RFO       ACCESS:     0  HIT:     0  MISS:     0  HIT %:     0  MISS %:     0  AVERAGE MISS PENALTY: 0
ITLB PREFETCH  ACCESS:     0  HIT:     0  MISS:     0  HIT %:     0  MISS %:     0  AVERAGE MISS PENALTY: 0
ITLB WRITEBACK ACCESS:     0  HIT:     0  MISS:     0  HIT %:     0  MISS %:     0  AVERAGE MISS PENALTY: 0

DTLB TOTAL     ACCESS: 39699975  HIT: 24618952  MISS: 15081023  HIT %: 62.0125  MISS %: 37.9875  AVERAGE MISS PENALTY: 10.2293
DTLB LOAD      ACCESS: 27949294  HIT: 14334436  MISS: 13614858  HIT %: 51.2873  MISS %: 48.7127  AVERAGE MISS PENALTY: 10.286
DTLB RFO       ACCESS: 11750681  HIT: 10284516  MISS: 1466165  HIT %: 87.5227  MISS %: 12.4773  AVERAGE MISS PENALTY: 9.70276
DTLB PREFETCH  ACCESS:     0  HIT:     0  MISS:     0  HIT %:     0  MISS %:     0  AVERAGE MISS PENALTY: 0
DTLB WRITEBACK ACCESS:     0  HIT:     0  MISS:     0  HIT %:     0  MISS %:     0  AVERAGE MISS PENALTY: 0

STLB TOTAL     ACCESS: 15081023  HIT: 15056666  MISS: 24357  HIT %: 99.8385  MISS %: 0.161508  AVERAGE MISS PENALTY: 100
STLB LOAD      ACCESS: 13614858  HIT: 13590505  MISS: 24353  HIT %: 99.8211  MISS %: 0.178871  AVERAGE MISS PENALTY: 100
STLB RFO       ACCESS: 1466165  HIT: 1466161  MISS:     4  HIT %: 99.9997  MISS %: 0.000272821  AVERAGE MISS PENALTY: 100
STLB PREFETCH  ACCESS:     0  HIT:     0  MISS:     0  HIT %:     0  MISS %:     0  AVERAGE MISS PENALTY: 0
STLB WRITEBACK ACCESS:     0  HIT:     0  MISS:     0  HIT %:     0  MISS %:     0  AVERAGE MISS PENALTY: 0

L1D TOTAL     ACCESS: 69484604  HIT: 39404954  MISS: 30079650  HIT %: 56.7103  MISS %: 43.2897  AVERAGE MISS PENALTY: 87436.2
L1D LOAD      ACCESS: 34515607  HIT: 13048988  MISS: 21466619  HIT %: 37.8061  MISS %: 62.1939  AVERAGE MISS PENALTY: 122443
L1D RFO       ACCESS: 22580607  HIT: 20948174  MISS: 1632433  HIT %: 92.7706  MISS %: 7.22936  AVERAGE MISS PENALTY: 732.82
L1D PREFETCH  ACCESS: 12388390  HIT: 5407792  MISS: 6980598  HIT %: 43.6521  MISS %: 56.3479  AVERAGE MISS PENALTY: 60.2975
L1D WRITEBACK ACCESS:     0  HIT:     0  MISS:     0  HIT %:     0  MISS %:     0  AVERAGE MISS PENALTY: 0

L1I TOTAL     ACCESS: 47169971  HIT: 47169971  MISS:     0  HIT %:   100  MISS %:     0  AVERAGE MISS PENALTY: 0
L1I LOAD      ACCESS: 47169971  HIT: 47169971  MISS:     0  HIT %:   100  MISS %:     0  AVERAGE MISS PENALTY: 0
L1I RFO       ACCESS:     0  HIT:     0  MISS:     0  HIT %:     0  MISS %:     0  AVERAGE MISS PENALTY: 0
L1I PREFETCH  ACCESS:     0  HIT:     0  MISS:     0  HIT %:     0  MISS %:     0  AVERAGE MISS PENALTY: 0
L1I WRITEBACK ACCESS:     0  HIT:     0  MISS:     0  HIT %:     0  MISS %:     0  AVERAGE MISS PENALTY: 0

L2C TOTAL     ACCESS: 54720410  HIT: 52204988  MISS: 2515422  HIT %: 95.4031  MISS %: 4.59686  AVERAGE MISS PENALTY: 43101.4
L2C LOAD      ACCESS: 21152457  HIT: 20756479  MISS: 395978  HIT %: 98.128  MISS %: 1.87202  AVERAGE MISS PENALTY: 271309
L2C RFO       ACCESS: 1629430  HIT: 1568769  MISS: 60661  HIT %: 96.2772  MISS %: 3.72284  AVERAGE MISS PENALTY: 34.7497
L2C PREFETCH  ACCESS: 30088791  HIT: 28030327  MISS: 2058464  HIT %: 93.1587  MISS %: 6.8413  AVERAGE MISS PENALTY: 477.881
L2C WRITEBACK ACCESS: 1849732  HIT: 1849413  MISS:   319  HIT %: 99.9828  MISS %: 0.0172457  AVERAGE MISS PENALTY: 0


LLC0 TOTAL     ACCESS: 337642  HIT: 131631  MISS: 206011  HIT %: 38.9854  MISS %: 61.0146  AVERAGE MISS PENALTY: 578.682
LLC0 LOAD      ACCESS: 73320  HIT: 41937  MISS: 31383  HIT %: 57.1972  MISS %: 42.8028  AVERAGE MISS PENALTY: 623.072
LLC0 RFO       ACCESS:  6702  HIT:  6692  MISS:    10  HIT %: 99.8508  MISS %: 0.149209  AVERAGE MISS PENALTY: 682.6
LLC0 PREFETCH  ACCESS: 228165  HIT: 56902  MISS: 171263  HIT %: 24.939  MISS %: 75.061  AVERAGE MISS PENALTY: 581.878
LLC0 WRITEBACK ACCESS: 29455  HIT: 26100  MISS:  3355  HIT %: 88.6097  MISS %: 11.3903  AVERAGE MISS PENALTY: 0

LLC1 TOTAL     ACCESS: 346806  HIT: 141593  MISS: 205213  HIT %: 40.8277  MISS %: 59.1723  AVERAGE MISS PENALTY: 570.01
LLC1 LOAD      ACCESS: 46124  HIT: 40388  MISS:  5736  HIT %: 87.564  MISS %: 12.436  AVERAGE MISS PENALTY: 693.254
LLC1 RFO       ACCESS:  7517  HIT:  7506  MISS:    11  HIT %: 99.8537  MISS %: 0.146335  AVERAGE MISS PENALTY: 815.364
LLC1 PREFETCH  ACCESS: 263023  HIT: 66373  MISS: 196650  HIT %: 25.2347  MISS %: 74.7653  AVERAGE MISS PENALTY: 574.564
LLC1 WRITEBACK ACCESS: 30142  HIT: 27326  MISS:  2816  HIT %: 90.6576  MISS %: 9.34245  AVERAGE MISS PENALTY: 0

LLC2 TOTAL     ACCESS: 345960  HIT: 141081  MISS: 204879  HIT %: 40.7796  MISS %: 59.2204  AVERAGE MISS PENALTY: 582.633
LLC2 LOAD      ACCESS: 45506  HIT: 39893  MISS:  5613  HIT %: 87.6654  MISS %: 12.3346  AVERAGE MISS PENALTY: 647.978
LLC2 RFO       ACCESS:  7484  HIT:  7473  MISS:    11  HIT %: 99.853  MISS %: 0.14698  AVERAGE MISS PENALTY: 479.364
LLC2 PREFETCH  ACCESS: 262889  HIT: 66404  MISS: 196485  HIT %: 25.2593  MISS %: 74.7407  AVERAGE MISS PENALTY: 588.986
LLC2 WRITEBACK ACCESS: 30081  HIT: 27311  MISS:  2770  HIT %: 90.7915  MISS %: 9.20847  AVERAGE MISS PENALTY: 0

LLC3 TOTAL     ACCESS: 344026  HIT: 139167  MISS: 204859  HIT %: 40.4525  MISS %: 59.5475  AVERAGE MISS PENALTY: 570.001
LLC3 LOAD      ACCESS: 45817  HIT: 39818  MISS:  5999  HIT %: 86.9066  MISS %: 13.0934  AVERAGE MISS PENALTY: 622.354
LLC3 RFO       ACCESS:  7570  HIT:  7558  MISS:    12  HIT %: 99.8415  MISS %: 0.15852  AVERAGE MISS PENALTY: 729.25
LLC3 PREFETCH  ACCESS: 260500  HIT: 64314  MISS: 196186  HIT %: 24.6887  MISS %: 75.3113  AVERAGE MISS PENALTY: 576.124
LLC3 WRITEBACK ACCESS: 30139  HIT: 27477  MISS:  2662  HIT %: 91.1676  MISS %: 8.83241  AVERAGE MISS PENALTY: 0

LLC4 TOTAL     ACCESS: 345222  HIT: 140538  MISS: 204684  HIT %: 40.7095  MISS %: 59.2905  AVERAGE MISS PENALTY: 574.546
LLC4 LOAD      ACCESS: 46337  HIT: 40460  MISS:  5877  HIT %: 87.3168  MISS %: 12.6832  AVERAGE MISS PENALTY: 687.314
LLC4 RFO       ACCESS:  7593  HIT:  7579  MISS:    14  HIT %: 99.8156  MISS %: 0.18438  AVERAGE MISS PENALTY: 531.071
LLC4 PREFETCH  ACCESS: 261196  HIT: 65034  MISS: 196162  HIT %: 24.8985  MISS %: 75.1015  AVERAGE MISS PENALTY: 578.877
LLC4 WRITEBACK ACCESS: 30096  HIT: 27465  MISS:  2631  HIT %: 91.258  MISS %: 8.74203  AVERAGE MISS PENALTY: 0

LLC5 TOTAL     ACCESS: 344615  HIT: 139965  MISS: 204650  HIT %: 40.6149  MISS %: 59.3851  AVERAGE MISS PENALTY: 577.591
LLC5 LOAD      ACCESS: 46252  HIT: 40121  MISS:  6131  HIT %: 86.7444  MISS %: 13.2556  AVERAGE MISS PENALTY: 686.98
LLC5 RFO       ACCESS:  7525  HIT:  7513  MISS:    12  HIT %: 99.8405  MISS %: 0.159468  AVERAGE MISS PENALTY: 677.417
LLC5 PREFETCH  ACCESS: 260788  HIT: 64935  MISS: 195853  HIT %: 24.8995  MISS %: 75.1005  AVERAGE MISS PENALTY: 581.988
LLC5 WRITEBACK ACCESS: 30050  HIT: 27396  MISS:  2654  HIT %: 91.1681  MISS %: 8.83195  AVERAGE MISS PENALTY: 0

LLC6 TOTAL     ACCESS: 344927  HIT: 140112  MISS: 204815  HIT %: 40.6208  MISS %: 59.3792  AVERAGE MISS PENALTY: 575.036
LLC6 LOAD      ACCESS: 46296  HIT: 40173  MISS:  6123  HIT %: 86.7742  MISS %: 13.2258  AVERAGE MISS PENALTY: 623.952
LLC6 RFO       ACCESS:  7569  HIT:  7549  MISS:    20  HIT %: 99.7358  MISS %: 0.264236  AVERAGE MISS PENALTY: 545.2
LLC6 PREFETCH  ACCESS: 260745  HIT: 64733  MISS: 196012  HIT %: 24.8262  MISS %: 75.1738  AVERAGE MISS PENALTY: 581.314
LLC6 WRITEBACK ACCESS: 30317  HIT: 27657  MISS:  2660  HIT %: 91.226  MISS %: 8.77396  AVERAGE MISS PENALTY: 0

LLC7 TOTAL     ACCESS: 345446  HIT: 140395  MISS: 205051  HIT %: 40.6417  MISS %: 59.3583  AVERAGE MISS PENALTY: 576.199
LLC7 LOAD      ACCESS: 46099  HIT: 40255  MISS:  5844  HIT %: 87.3229  MISS %: 12.6771  AVERAGE MISS PENALTY: 624.561
LLC7 RFO       ACCESS:  7508  HIT:  7490  MISS:    18  HIT %: 99.7603  MISS %: 0.239744  AVERAGE MISS PENALTY: 521.944
LLC7 PREFETCH  ACCESS: 261371  HIT: 64973  MISS: 196398  HIT %: 24.8585  MISS %: 75.1415  AVERAGE MISS PENALTY: 582.953
LLC7 WRITEBACK ACCESS: 30468  HIT: 27677  MISS:  2791  HIT %: 90.8396  MISS %: 9.16043  AVERAGE MISS PENALTY: 0

Total Rob stall cycles : 	102270815
Total Load Rob Stall cycles : 	43431945
Average Rob Stall cycles : 	 5
Average Load Rob Stall cycles : 	 22

CPU 1 cumulative IPC: 1.39079 instructions: 203141899 cycles: 146062620
ITLB TOTAL     ACCESS: 36262848  HIT: 36262848  MISS:     0  HIT %:   100  MISS %:     0  AVERAGE MISS PENALTY: 0
ITLB LOAD      ACCESS: 36262848  HIT: 36262848  MISS:     0  HIT %:   100  MISS %:     0  AVERAGE MISS PENALTY: 0
ITLB RFO       ACCESS:     0  HIT:     0  MISS:     0  HIT %:     0  MISS %:     0  AVERAGE MISS PENALTY: 0
ITLB PREFETCH  ACCESS:     0  HIT:     0  MISS:     0  HIT %:     0  MISS %:     0  AVERAGE MISS PENALTY: 0
ITLB WRITEBACK ACCESS:     0  HIT:     0  MISS:     0  HIT %:     0  MISS %:     0  AVERAGE MISS PENALTY: 0

DTLB TOTAL     ACCESS: 40364321  HIT: 25046449  MISS: 15317872  HIT %: 62.051  MISS %: 37.949  AVERAGE MISS PENALTY: 15.8391
DTLB LOAD      ACCESS: 28338276  HIT: 14509669  MISS: 13828607  HIT %: 51.2017  MISS %: 48.7983  AVERAGE MISS PENALTY: 16.5
DTLB RFO       ACCESS: 12026045  HIT: 10536780  MISS: 1489265  HIT %: 87.6163  MISS %: 12.3837  AVERAGE MISS PENALTY: 9.70267
DTLB PREFETCH  ACCESS:     0  HIT:     0  MISS:     0  HIT %:     0  MISS %:     0  AVERAGE MISS PENALTY: 0
DTLB WRITEBACK ACCESS:     0  HIT:     0  MISS:     0  HIT %:     0  MISS %:     0  AVERAGE MISS PENALTY: 0

STLB TOTAL     ACCESS: 15317872  HIT: 15293141  MISS: 24731  HIT %: 99.8385  MISS %: 0.161452  AVERAGE MISS PENALTY: 100
STLB LOAD      ACCESS: 13828606  HIT: 13803879  MISS: 24727  HIT %: 99.8212  MISS %: 0.178811  AVERAGE MISS PENALTY: 100
STLB RFO       ACCESS: 1489266  HIT: 1489262  MISS:     4  HIT %: 99.9997  MISS %: 0.000268589  AVERAGE MISS PENALTY: 100
STLB PREFETCH  ACCESS:     0  HIT:     0  MISS:     0  HIT %:     0  MISS %:     0  AVERAGE MISS PENALTY: 0
STLB WRITEBACK ACCESS:     0  HIT:     0  MISS:     0  HIT %:     0  MISS %:     0  AVERAGE MISS PENALTY: 0

L1D TOTAL     ACCESS: 70541304  HIT: 39996566  MISS: 30544738  HIT %: 56.6995  MISS %: 43.3005  AVERAGE MISS PENALTY: 85247.2
L1D LOAD      ACCESS: 35054136  HIT: 13231955  MISS: 21822181  HIT %: 37.7472  MISS %: 62.2528  AVERAGE MISS PENALTY: 119247
L1D RFO       ACCESS: 22935097  HIT: 21277177  MISS: 1657920  HIT %: 92.7713  MISS %: 7.22875  AVERAGE MISS PENALTY: 674.693
L1D PREFETCH  ACCESS: 12552071  HIT: 5487434  MISS: 7064637  HIT %: 43.7174  MISS %: 56.2826  AVERAGE MISS PENALTY: 71.7834
L1D WRITEBACK ACCESS:     0  HIT:     0  MISS:     0  HIT %:     0  MISS %:     0  AVERAGE MISS PENALTY: 0

L1I TOTAL     ACCESS: 47952378  HIT: 47952378  MISS:     0  HIT %:   100  MISS %:     0  AVERAGE MISS PENALTY: 0
L1I LOAD      ACCESS: 47952378  HIT: 47952378  MISS:     0  HIT %:   100  MISS %:     0  AVERAGE MISS PENALTY: 0
L1I RFO       ACCESS:     0  HIT:     0  MISS:     0  HIT %:     0  MISS %:     0  AVERAGE MISS PENALTY: 0
L1I PREFETCH  ACCESS:     0  HIT:     0  MISS:     0  HIT %:     0  MISS %:     0  AVERAGE MISS PENALTY: 0
L1I WRITEBACK ACCESS:     0  HIT:     0  MISS:     0  HIT %:     0  MISS %:     0  AVERAGE MISS PENALTY: 0

L2C TOTAL     ACCESS: 55553052  HIT: 53208065  MISS: 2344987  HIT %: 95.7788  MISS %: 4.22117  AVERAGE MISS PENALTY: 42795.1
L2C LOAD      ACCESS: 21495924  HIT: 21201621  MISS: 294303  HIT %: 98.6309  MISS %: 1.36911  AVERAGE MISS PENALTY: 337653
L2C RFO       ACCESS: 1654761  HIT: 1612813  MISS: 41948  HIT %: 97.465  MISS %: 2.53499  AVERAGE MISS PENALTY: 34.5484
L2C PREFETCH  ACCESS: 30523909  HIT: 28515671  MISS: 2008238  HIT %: 93.4208  MISS %: 6.57923  AVERAGE MISS PENALTY: 488.081
L2C WRITEBACK ACCESS: 1878458  HIT: 1877960  MISS:   498  HIT %: 99.9735  MISS %: 0.0265111  AVERAGE MISS PENALTY: 0


LLC0 TOTAL     ACCESS: 317662  HIT: 109303  MISS: 208359  HIT %: 34.4086  MISS %: 65.5914  AVERAGE MISS PENALTY: 569.243
LLC0 LOAD      ACCESS: 62139  HIT: 30323  MISS: 31816  HIT %: 48.7987  MISS %: 51.2013  AVERAGE MISS PENALTY: 605.009
LLC0 RFO       ACCESS:  4589  HIT:  4585  MISS:     4  HIT %: 99.9128  MISS %: 0.087165  AVERAGE MISS PENALTY: 1095.5
LLC0 PREFETCH  ACCESS: 222774  HIT: 49497  MISS: 173277  HIT %: 22.2185  MISS %: 77.7815  AVERAGE MISS PENALTY: 573.38
LLC0 WRITEBACK ACCESS: 28160  HIT: 24898  MISS:  3262  HIT %: 88.4162  MISS %: 11.5838  AVERAGE MISS PENALTY: 0

LLC1 TOTAL     ACCESS: 322343  HIT: 115162  MISS: 207181  HIT %: 35.7265  MISS %: 64.2735  AVERAGE MISS PENALTY: 559.793
LLC1 LOAD      ACCESS: 32483  HIT: 26749  MISS:  5734  HIT %: 82.3477  MISS %: 17.6523  AVERAGE MISS PENALTY: 661.492
LLC1 RFO       ACCESS:  5049  HIT:  5044  MISS:     5  HIT %: 99.901  MISS %: 0.0990295  AVERAGE MISS PENALTY: 564.2
LLC1 PREFETCH  ACCESS: 256176  HIT: 57506  MISS: 198670  HIT %: 22.4478  MISS %: 77.5522  AVERAGE MISS PENALTY: 564.668
LLC1 WRITEBACK ACCESS: 28635  HIT: 25863  MISS:  2772  HIT %: 90.3195  MISS %: 9.68046  AVERAGE MISS PENALTY: 0

LLC2 TOTAL     ACCESS: 323537  HIT: 116426  MISS: 207111  HIT %: 35.9854  MISS %: 64.0146  AVERAGE MISS PENALTY: 570.141
LLC2 LOAD      ACCESS: 33081  HIT: 27448  MISS:  5633  HIT %: 82.9721  MISS %: 17.0279  AVERAGE MISS PENALTY: 634.856
LLC2 RFO       ACCESS:  5177  HIT:  5174  MISS:     3  HIT %: 99.9421  MISS %: 0.0579486  AVERAGE MISS PENALTY: 573
LLC2 PREFETCH  ACCESS: 256586  HIT: 57855  MISS: 198731  HIT %: 22.548  MISS %: 77.452  AVERAGE MISS PENALTY: 576.179
LLC2 WRITEBACK ACCESS: 28693  HIT: 25949  MISS:  2744  HIT %: 90.4367  MISS %: 9.56331  AVERAGE MISS PENALTY: 0

LLC3 TOTAL     ACCESS: 321194  HIT: 114023  MISS: 207171  HIT %: 35.4997  MISS %: 64.5003  AVERAGE MISS PENALTY: 562.495
LLC3 LOAD      ACCESS: 32904  HIT: 26828  MISS:  6076  HIT %: 81.5342  MISS %: 18.4658  AVERAGE MISS PENALTY: 654.002
LLC3 RFO       ACCESS:  5142  HIT:  5139  MISS:     3  HIT %: 99.9417  MISS %: 0.0583431  AVERAGE MISS PENALTY: 727.667
LLC3 PREFETCH  ACCESS: 254546  HIT: 56053  MISS: 198493  HIT %: 22.0208  MISS %: 77.9792  AVERAGE MISS PENALTY: 567.056
LLC3 WRITEBACK ACCESS: 28602  HIT: 26003  MISS:  2599  HIT %: 90.9132  MISS %: 9.08678  AVERAGE MISS PENALTY: 0

[...]
 TIMELY PREFETCHES:      38539 LATE PREFETCHES: 0 DROPPED PREFETCHES: 0
LLC1 AVERAGE MISS LATENCY: 550.913 cycles
LLC2 TOTAL     ACCESS: 281489  HIT: 78443  MISS: 203046  HIT %: 27.8672  MISS %: 72.1328  AVERAGE MISS PENALTY: 567.544
LLC2 LOAD      ACCESS: 16428  HIT: 10949  MISS:  5479  HIT %: 66.6484  MISS %: 33.3516  AVERAGE MISS PENALTY: 651.811
LLC2 RFO       ACCESS:  2255  HIT:  2251  MISS:     4  HIT %: 99.8226  MISS %: 0.177384  AVERAGE MISS PENALTY: 359.5
LLC2 PREFETCH  ACCESS: 236996  HIT: 41804  MISS: 195192  HIT %: 17.6391  MISS %: 82.3609  AVERAGE MISS PENALTY: 572.077
LLC2 WRITEBACK ACCESS: 25810  HIT: 23439  MISS:  2371  HIT %: 90.8136  MISS %: 9.18636  AVERAGE MISS PENALTY: 0
LLC2 PREFETCH  REQUESTED:     0  ISSUED:     0  USEFUL: 38297  USELESS: 1566702
 USEFUL LOAD PREFETCHES:      38297 PREFETCH ISSUED TO LOWER LEVEL:   18560933  ACCURACY: 0.206331
 TIMELY PREFETCHES:      38297 LATE PREFETCHES: 0 DROPPED PREFETCHES: 0
LLC2 AVERAGE MISS LATENCY: 567.544 cycles
LLC3 TOTAL     ACCESS: 279895  HIT: 76894  MISS: 203001  HIT %: 27.4724  MISS %: 72.5276  AVERAGE MISS PENALTY: 560.731
LLC3 LOAD      ACCESS: 16374  HIT: 10490  MISS:  5884  HIT %: 64.065  MISS %: 35.935  AVERAGE MISS PENALTY: 666.875
LLC3 RFO       ACCESS:  2253  HIT:  2252  MISS:     1  HIT %: 99.9556  MISS %: 0.0443853  AVERAGE MISS PENALTY: 24
LLC3 PREFETCH  ACCESS: 235471  HIT: 40734  MISS: 194737  HIT %: 17.2989  MISS %: 82.7011  AVERAGE MISS PENALTY: 564.377
LLC3 WRITEBACK ACCESS: 25797  HIT: 23418  MISS:  2379  HIT %: 90.778  MISS %: 9.222  AVERAGE MISS PENALTY: 0
LLC3 PREFETCH  REQUESTED:     0  ISSUED:     0  USEFUL: 37975  USELESS: 1563504
 USEFUL LOAD PREFETCHES:      37975 PREFETCH ISSUED TO LOWER LEVEL:   20758458  ACCURACY: 0.182937
 TIMELY PREFETCHES:      37975 LATE PREFETCHES: 0 DROPPED PREFETCHES: 0
LLC3 AVERAGE MISS LATENCY: 560.731 cycles
LLC4 TOTAL     ACCESS: 280023  HIT: 77097  MISS: 202926  HIT %: 27.5324  MISS %: 72.4676  AVERAGE MISS PENALTY: 559.111
LLC4 LOAD      ACCESS: 16581  HIT: 10817  MISS:  5764  HIT %: 65.2373  MISS %: 34.7627  AVERAGE MISS PENALTY: 676.704
LLC4 RFO       ACCESS:  2258  HIT:  2254  MISS:     4  HIT %: 99.8229  MISS %: 0.177148  AVERAGE MISS PENALTY: 310.25
LLC4 PREFETCH  ACCESS: 235409  HIT: 40578  MISS: 194831  HIT %: 17.2372  MISS %: 82.7628  AVERAGE MISS PENALTY: 562.315
LLC4 WRITEBACK ACCESS: 25775  HIT: 23448  MISS:  2327  HIT %: 90.9719  MISS %: 9.02813  AVERAGE MISS PENALTY: 0
LLC4 PREFETCH  REQUESTED:     0  ISSUED:     0  USEFUL: 38709  USELESS: 1563483
 USEFUL LOAD PREFETCHES:      38709 PREFETCH ISSUED TO LOWER LEVEL:   23580166  ACCURACY: 0.164159
 TIMELY PREFETCHES:      38709 LATE PREFETCHES: 0 DROPPED PREFETCHES: 0
LLC4 AVERAGE MISS LATENCY: 559.111 cycles
LLC5 TOTAL     ACCESS: 279741  HIT: 76719  MISS: 203022  HIT %: 27.425  MISS %: 72.575  AVERAGE MISS PENALTY: 563.358
LLC5 LOAD      ACCESS: 16843  HIT: 10732  MISS:  6111  HIT %: 63.7179  MISS %: 36.2821  AVERAGE MISS PENALTY: 691.735
LLC5 RFO       ACCESS:  2243  HIT:  2242  MISS:     1  HIT %: 99.9554  MISS %: 0.0445831  AVERAGE MISS PENALTY: 176
LLC5 PREFETCH  ACCESS: 234873  HIT: 40328  MISS: 194545  HIT %: 17.1701  MISS %: 82.8299  AVERAGE MISS PENALTY: 566.176
LLC5 WRITEBACK ACCESS: 25782  HIT: 23417  MISS:  2365  HIT %: 90.8269  MISS %: 9.17307  AVERAGE MISS PENALTY: 0
LLC5 PREFETCH  REQUESTED:     0  ISSUED:     0  USEFUL: 38534  USELESS: 1561793
 USEFUL LOAD PREFETCHES:      38534 PREFETCH ISSUED TO LOWER LEVEL:   27122081  ACCURACY: 0.142076
 TIMELY PREFETCHES:      38534 LATE PREFETCHES: 0 DROPPED PREFETCHES: 0
LLC5 AVERAGE MISS LATENCY: 563.358 cycles
LLC6 TOTAL     ACCESS: 279783  HIT: 76877  MISS: 202906  HIT %: 27.4774  MISS %: 72.5226  AVERAGE MISS PENALTY: 565.134
LLC6 LOAD      ACCESS: 16618  HIT: 10574  MISS:  6044  HIT %: 63.6298  MISS %: 36.3702  AVERAGE MISS PENALTY: 673.92
LLC6 RFO       ACCESS:  2276  HIT:  2275  MISS:     1  HIT %: 99.9561  MISS %: 0.0439367  AVERAGE MISS PENALTY: 174
LLC6 PREFETCH  ACCESS: 234951  HIT: 40460  MISS: 194491  HIT %: 17.2206  MISS %: 82.7794  AVERAGE MISS PENALTY: 568.642
LLC6 WRITEBACK ACCESS: 25938  HIT: 23568  MISS:  2370  HIT %: 90.8628  MISS %: 9.13717  AVERAGE MISS PENALTY: 0
LLC6 PREFETCH  REQUESTED:     0  ISSUED:     0  USEFUL: 38577  USELESS: 1562079
 USEFUL LOAD PREFETCHES:      38577 PREFETCH ISSUED TO LOWER LEVEL:   31182562  ACCURACY: 0.123713
 TIMELY PREFETCHES:      38577 LATE PREFETCHES: 0 DROPPED PREFETCHES: 0
LLC6 AVERAGE MISS LATENCY: 565.134 cycles
LLC7 TOTAL     ACCESS: 280780  HIT: 77898  MISS: 202882  HIT %: 27.7434  MISS %: 72.2566  AVERAGE MISS PENALTY: 564.822
LLC7 LOAD      ACCESS: 16655  HIT: 10911  MISS:  5744  HIT %: 65.5119  MISS %: 34.4881  AVERAGE MISS PENALTY: 680.388
LLC7 RFO       ACCESS:  2407  HIT:  2406  MISS:     1  HIT %: 99.9585  MISS %: 0.0415455  AVERAGE MISS PENALTY: 1304
LLC7 PREFETCH  ACCESS: 235535  HIT: 40865  MISS: 194670  HIT %: 17.3499  MISS %: 82.6501  AVERAGE MISS PENALTY: 568.566
LLC7 WRITEBACK ACCESS: 26183  HIT: 23716  MISS:  2467  HIT %: 90.5779  MISS %: 9.42214  AVERAGE MISS PENALTY: 0
LLC7 PREFETCH  REQUESTED:     0  ISSUED:     0  USEFUL: 39108  USELESS: 1564121
 USEFUL LOAD PREFETCHES:      39108 PREFETCH ISSUED TO LOWER LEVEL:   36205907  ACCURACY: 0.108016
 TIMELY PREFETCHES:      39108 LATE PREFETCHES: 0 DROPPED PREFETCHES: 0
LLC7 AVERAGE MISS LATENCY: 564.822 cycles
ROI Average ROB Stall Cycles:	5.30868
ROI Total ROB Stalls Cycles:	97852641
ROI TOTAL ROB counter      :	18432560
ROI Average Load ROB Stall Cycles:	20.4834
ROI Total Load ROB Stalls Cycle  :	38641595
ROI Total Load ROB stalls Counter:	1886487
Major fault: 0 Minor fault: 21901

CPU 7 cumulative IPC: 1.40704 instructions: 200000003 cycles: 142142032
ITLB TOTAL     ACCESS: 35707092  HIT: 35707092  MISS:     0  HIT %:   100  MISS %:     0  AVERAGE MISS PENALTY: 0
ITLB LOAD      ACCESS: 35707092  HIT: 35707092  MISS:     0  HIT %:   100  MISS %:     0  AVERAGE MISS PENALTY: 0
ITLB RFO       ACCESS:     0  HIT:     0  MISS:     0  HIT %:     0  MISS %:     0  AVERAGE MISS PENALTY: 0
ITLB PREFETCH  ACCESS:     0  HIT:     0  MISS:     0  HIT %:     0  MISS %:     0  AVERAGE MISS PENALTY: 0
ITLB WRITEBACK ACCESS:     0  HIT:     0  MISS:     0  HIT %:     0  MISS %:     0  AVERAGE MISS PENALTY: 0
ITLB PREFETCH  REQUESTED:     0  ISSUED:     0  USEFUL:     0  USELESS:     0
 USEFUL LOAD PREFETCHES:          0 PREFETCH ISSUED TO LOWER LEVEL:          0  ACCURACY: -nan
 TIMELY PREFETCHES:          0 LATE PREFETCHES: 0 DROPPED PREFETCHES: 0
ITLB AVERAGE MISS LATENCY: -nan cycles
DTLB TOTAL     ACCESS: 39758964  HIT: 24678033  MISS: 15080931  HIT %: 62.0691  MISS %: 37.9309  AVERAGE MISS PENALTY: 10.2306
DTLB LOAD      ACCESS: 27856336  HIT: 14241886  MISS: 13614450  HIT %: 51.1262  MISS %: 48.8738  AVERAGE MISS PENALTY: 10.2874
DTLB RFO       ACCESS: 11902628  HIT: 10436147  MISS: 1466481  HIT %: 87.6794  MISS %: 12.3206  AVERAGE MISS PENALTY: 9.70279
DTLB PREFETCH  ACCESS:     0  HIT:     0  MISS:     0  HIT %:     0  MISS %:     0  AVERAGE MISS PENALTY: 0
DTLB WRITEBACK ACCESS:     0  HIT:     0  MISS:     0  HIT %:     0  MISS %:     0  AVERAGE MISS PENALTY: 0
DTLB PREFETCH  REQUESTED:     0  ISSUED:     0  USEFUL:     0  USELESS:     0
 USEFUL LOAD PREFETCHES:          0 PREFETCH ISSUED TO LOWER LEVEL:          0  ACCURACY: -nan
 TIMELY PREFETCHES:          0 LATE PREFETCHES: 0 DROPPED PREFETCHES: 0
DTLB AVERAGE MISS LATENCY: 10.2306 cycles
STLB TOTAL     ACCESS: 15080932  HIT: 15056575  MISS: 24357  HIT %: 99.8385  MISS %: 0.161509  AVERAGE MISS PENALTY: 100
STLB LOAD      ACCESS: 13614451  HIT: 13590098  MISS: 24353  HIT %: 99.8211  MISS %: 0.178876  AVERAGE MISS PENALTY: 100
STLB RFO       ACCESS: 1466481  HIT: 1466477  MISS:     4  HIT %: 99.9997  MISS %: 0.000272762  AVERAGE MISS PENALTY: 100
STLB PREFETCH  ACCESS:     0  HIT:     0  MISS:     0  HIT %:     0  MISS %:     0  AVERAGE MISS PENALTY: 0
STLB WRITEBACK ACCESS:     0  HIT:     0  MISS:     0  HIT %:     0  MISS %:     0  AVERAGE MISS PENALTY: 0
STLB PREFETCH  REQUESTED:     0  ISSUED:     0  USEFUL:     0  USELESS:     0
 USEFUL LOAD PREFETCHES:          0 PREFETCH ISSUED TO LOWER LEVEL:          0  ACCURACY: -nan
 TIMELY PREFETCHES:          0 LATE PREFETCHES: 0 DROPPED PREFETCHES: 0
STLB AVERAGE MISS LATENCY: 100 cycles
L1D TOTAL     ACCESS: 69389739  HIT: 39331507  MISS: 30058232  HIT %: 56.682  MISS %: 43.318  AVERAGE MISS PENALTY: 81002.8
L1D LOAD      ACCESS: 34512242  HIT: 13023447  MISS: 21488795  HIT %: 37.7357  MISS %: 62.2643  AVERAGE MISS PENALTY: 113195
L1D RFO       ACCESS: 22581305  HIT: 20948825  MISS: 1632480  HIT %: 92.7707  MISS %: 7.22934  AVERAGE MISS PENALTY: 1040.99
L1D PREFETCH  ACCESS: 12296192  HIT: 5359235  MISS: 6936957  HIT %: 43.5845  MISS %: 56.4155  AVERAGE MISS PENALTY: 96.7895
L1D WRITEBACK ACCESS:     0  HIT:     0  MISS:     0  HIT %:     0  MISS %:     0  AVERAGE MISS PENALTY: 0
L1D PREFETCH  REQUESTED: 15115428  ISSUED: 13094271  USEFUL: 128606  USELESS: 6808332
 USEFUL LOAD PREFETCHES:     128606 PREFETCH ISSUED TO LOWER LEVEL:   29994752  ACCURACY: 0.428762
 TIMELY PREFETCHES:     128606 LATE PREFETCHES: 543939 DROPPED PREFETCHES: 2021157
L1D AVERAGE MISS LATENCY: 83.5119 cycles
L1I TOTAL     ACCESS: 47227174  HIT: 47227174  MISS:     0  HIT %:   100  MISS %:     0  AVERAGE MISS PENALTY: 0
L1I LOAD      ACCESS: 47227174  HIT: 47227174  MISS:     0  HIT %:   100  MISS %:     0  AVERAGE MISS PENALTY: 0
L1I RFO       ACCESS:     0  HIT:     0  MISS:     0  HIT %:     0  MISS %:     0  AVERAGE MISS PENALTY: 0
L1I PREFETCH  ACCESS:     0  HIT:     0  MISS:     0  HIT %:     0  MISS %:     0  AVERAGE MISS PENALTY: 0
L1I WRITEBACK ACCESS:     0  HIT:     0  MISS:     0  HIT %:     0  MISS %:     0  AVERAGE MISS PENALTY: 0
L1I PREFETCH  REQUESTED:     0  ISSUED:     0  USEFUL:     0  USELESS:     0
 USEFUL LOAD PREFETCHES:          0 PREFETCH ISSUED TO LOWER LEVEL:          0  ACCURACY: -nan
 TIMELY PREFETCHES:          0 LATE PREFETCHES: 0 DROPPED PREFETCHES: 0
L1I AVERAGE MISS LATENCY: -nan cycles
L2C TOTAL     ACCESS: 54519197  HIT: 52411258  MISS: 2107939  HIT %: 96.1336  MISS %: 3.86642  AVERAGE MISS PENALTY: 16723.2
L2C LOAD      ACCESS: 21162412  HIT: 20974619  MISS: 187793  HIT %: 99.1126  MISS %: 0.887389  AVERAGE MISS PENALTY: 182563
L2C RFO       ACCESS: 1629273  HIT: 1603241  MISS: 26032  HIT %: 98.4022  MISS %: 1.59777  AVERAGE MISS PENALTY: 34.3213
L2C PREFETCH  ACCESS: 29878440  HIT: 27984713  MISS: 1893727  HIT %: 93.6619  MISS %: 6.33811  AVERAGE MISS PENALTY: 510.344
L2C WRITEBACK ACCESS: 1849072  HIT: 1848685  MISS:   387  HIT %: 99.9791  MISS %: 0.0209294  AVERAGE MISS PENALTY: 0
L2C PREFETCH  REQUESTED: 33973404  ISSUED: 28592135  USEFUL: 1820148  USELESS: 73416
 USEFUL LOAD PREFETCHES:    1820148 PREFETCH ISSUED TO LOWER LEVEL:    5633797  ACCURACY: 32.3077
 TIMELY PREFETCHES:    1820148 LATE PREFETCHES: 23233 DROPPED PREFETCHES: 5381269
L2C AVERAGE MISS LATENCY: 484.516 cycles
LLC0 TOTAL     ACCESS: 288797  HIT: 83483  MISS: 205314  HIT %: 28.9072  MISS %: 71.0928  AVERAGE MISS PENALTY: 576.78
LLC0 LOAD      ACCESS: 49499  HIT: 18338  MISS: 31161  HIT %: 37.0472  MISS %: 62.9528  AVERAGE MISS PENALTY: 632.608
LLC0 RFO       ACCESS:  2857  HIT:  2855  MISS:     2  HIT %: 99.93  MISS %: 0.0700035  AVERAGE MISS PENALTY: 889
LLC0 PREFETCH  ACCESS: 210088  HIT: 39318  MISS: 170770  HIT %: 18.715  MISS %: 81.285  AVERAGE MISS PENALTY: 578.009
LLC0 WRITEBACK ACCESS: 26353  HIT: 22972  MISS:  3381  HIT %: 87.1703  MISS %: 12.8297  AVERAGE MISS PENALTY: 0
LLC0 PREFETCH  REQUESTED:     0  ISSUED:     0  USEFUL: 33818  USELESS: 1365001
 USEFUL LOAD PREFETCHES:      33818 PREFETCH ISSUED TO LOWER LEVEL:   14246928  ACCURACY: 0.23737
 TIMELY PREFETCHES:      33818 LATE PREFETCHES: 0 DROPPED PREFETCHES: 0
LLC0 AVERAGE MISS LATENCY: 576.78 cycles
Deadblocks : 229216 Deadblock percentage : 735.586

LLC1 TOTAL     ACCESS: 291357  HIT: 86909  MISS: 204448  HIT %: 29.829  MISS %: 70.171  AVERAGE MISS PENALTY: 558.312
LLC1 LOAD      ACCESS: 19566  HIT: 13988  MISS:  5578  HIT %: 71.4914  MISS %: 28.5086  AVERAGE MISS PENALTY: 660.535
LLC1 RFO       ACCESS:  3131  HIT:  3128  MISS:     3  HIT %: 99.9042  MISS %: 0.095816  AVERAGE MISS PENALTY: 713.333
LLC1 PREFETCH  ACCESS: 241993  HIT: 46003  MISS: 195990  HIT %: 19.0101  MISS %: 80.9899  AVERAGE MISS PENALTY: 563.596
LLC1 WRITEBACK ACCESS: 26667  HIT: 23790  MISS:  2877  HIT %: 89.2114  MISS %: 10.7886  AVERAGE MISS PENALTY: 0
LLC1 PREFETCH  REQUESTED:     0  ISSUED:     0  USEFUL: 38539  USELESS: 1566290
 USEFUL LOAD PREFETCHES:      38539 PREFETCH ISSUED TO LOWER LEVEL:   16545455  ACCURACY: 0.232928
 TIMELY PREFETCHES:      38539 LATE PREFETCHES: 0 DROPPED PREFETCHES: 0
LLC1 AVERAGE MISS LATENCY: 558.312 cycles
LLC2 TOTAL     ACCESS: 290894  HIT: 86661  MISS: 204233  HIT %: 29.7913  MISS %: 70.2087  AVERAGE MISS PENALTY: 577.855
LLC2 LOAD      ACCESS: 19399  HIT: 13931  MISS:  5468  HIT %: 71.813  MISS %: 28.187  AVERAGE MISS PENALTY: 645.502
LLC2 RFO       ACCESS:  3163  HIT:  3162  MISS:     1  HIT %: 99.9684  MISS %: 0.0316156  AVERAGE MISS PENALTY: 174
LLC2 PREFETCH  ACCESS: 241722  HIT: 45803  MISS: 195919  HIT %: 18.9486  MISS %: 81.0514  AVERAGE MISS PENALTY: 584.36
LLC2 WRITEBACK ACCESS: 26610  HIT: 23765  MISS:  2845  HIT %: 89.3085  MISS %: 10.6915  AVERAGE MISS PENALTY: 0
LLC2 PREFETCH  REQUESTED:     0  ISSUED:     0  USEFUL: 38297  USELESS: 1566702
 USEFUL LOAD PREFETCHES:      38297 PREFETCH ISSUED TO LOWER LEVEL:   18560933  ACCURACY: 0.206331
 TIMELY PREFETCHES:      38297 LATE PREFETCHES: 0 DROPPED PREFETCHES: 0
LLC2 AVERAGE MISS LATENCY: 577.855 cycles
LLC3 TOTAL     ACCESS: 289100  HIT: 85024  MISS: 204076  HIT %: 29.4099  MISS %: 70.5901  AVERAGE MISS PENALTY: 566.64
LLC3 LOAD      ACCESS: 19483  HIT: 13605  MISS:  5878  HIT %: 69.8301  MISS %: 30.1699  AVERAGE MISS PENALTY: 666.652
LLC3 RFO       ACCESS:  3155  HIT:  3149  MISS:     6  HIT %: 99.8098  MISS %: 0.190174  AVERAGE MISS PENALTY: 758.333
LLC3 PREFETCH  ACCESS: 239935  HIT: 44471  MISS: 195464  HIT %: 18.5346  MISS %: 81.4654  AVERAGE MISS PENALTY: 571.535
LLC3 WRITEBACK ACCESS: 26527  HIT: 23799  MISS:  2728  HIT %: 89.7161  MISS %: 10.2839  AVERAGE MISS PENALTY: 0
LLC3 PREFETCH  REQUESTED:     0  ISSUED:     0  USEFUL: 37975  USELESS: 1563504
 USEFUL LOAD PREFETCHES:      37975 PREFETCH ISSUED TO LOWER LEVEL:   20758458  ACCURACY: 0.182937
 TIMELY PREFETCHES:      37975 LATE PREFETCHES: 0 DROPPED PREFETCHES: 0
LLC3 AVERAGE MISS LATENCY: 566.64 cycles
LLC4 TOTAL     ACCESS: 289956  HIT: 85912  MISS: 204044  HIT %: 29.6293  MISS %: 70.3707  AVERAGE MISS PENALTY: 571.371
LLC4 LOAD      ACCESS: 19994  HIT: 14245  MISS:  5749  HIT %: 71.2464  MISS %: 28.7536  AVERAGE MISS PENALTY: 703.968
LLC4 RFO       ACCESS:  3206  HIT:  3200  MISS:     6  HIT %: 99.8129  MISS %: 0.187149  AVERAGE MISS PENALTY: 272.833
LLC4 PREFETCH  ACCESS: 240180  HIT: 44577  MISS: 195603  HIT %: 18.5598  MISS %: 81.4402  AVERAGE MISS PENALTY: 575.329
LLC4 WRITEBACK ACCESS: 26576  HIT: 23890  MISS:  2686  HIT %: 89.8931  MISS %: 10.1069  AVERAGE MISS PENALTY: 0
LLC4 PREFETCH  REQUESTED:     0  ISSUED:     0  USEFUL: 38709  USELESS: 1563483
 USEFUL LOAD PREFETCHES:      38709 PREFETCH ISSUED TO LOWER LEVEL:   23580166  ACCURACY: 0.164159
 TIMELY PREFETCHES:      38709 LATE PREFETCHES: 0 DROPPED PREFETCHES: 0
LLC4 AVERAGE MISS LATENCY: 571.371 cycles
LLC5 TOTAL     ACCESS: 289394  HIT: 85384  MISS: 204010  HIT %: 29.5044  MISS %: 70.4956  AVERAGE MISS PENALTY: 571.62
LLC5 LOAD      ACCESS: 19953  HIT: 13893  MISS:  6060  HIT %: 69.6286  MISS %: 30.3714  AVERAGE MISS PENALTY: 693.368
LLC5 RFO       ACCESS:  3184  HIT:  3181  MISS:     3  HIT %: 99.9058  MISS %: 0.0942211  AVERAGE MISS PENALTY: 1279
LLC5 PREFETCH  ACCESS: 239728  HIT: 44464  MISS: 195264  HIT %: 18.5477  MISS %: 81.4523  AVERAGE MISS PENALTY: 575.685
LLC5 WRITEBACK ACCESS: 26529  HIT: 23846  MISS:  2683  HIT %: 89.8865  MISS %: 10.1135  AVERAGE MISS PENALTY: 0
LLC5 PREFETCH  REQUESTED:     0  ISSUED:     0  USEFUL: 38534  USELESS: 1561793
 USEFUL LOAD PREFETCHES:      38534 PREFETCH ISSUED TO LOWER LEVEL:   27122081  ACCURACY: 0.142076
 TIMELY PREFETCHES:      38534 LATE PREFETCHES: 0 DROPPED PREFETCHES: 0
LLC5 AVERAGE MISS LATENCY: 571.62 cycles
LLC6 TOTAL     ACCESS: 290064  HIT: 86184  MISS: 203880  HIT %: 29.7121  MISS %: 70.2879  AVERAGE MISS PENALTY: 572.188
LLC6 LOAD      ACCESS: 19922  HIT: 13949  MISS:  5973  HIT %: 70.0181  MISS %: 29.9819  AVERAGE MISS PENALTY: 655.274
LLC6 RFO       ACCESS:  3357  HIT:  3348  MISS:     9  HIT %: 99.7319  MISS %: 0.268097  AVERAGE MISS PENALTY: 383.667
LLC6 PREFETCH  ACCESS: 239999  HIT: 44807  MISS: 195192  HIT %: 18.6697  MISS %: 81.3303  AVERAGE MISS PENALTY: 577.586
LLC6 WRITEBACK ACCESS: 26786  HIT: 24080  MISS:  2706  HIT %: 89.8977  MISS %: 10.1023  AVERAGE MISS PENALTY: 0
LLC6 PREFETCH  REQUESTED:     0  ISSUED:     0  USEFUL: 38577  USELESS: 1562079
 USEFUL LOAD PREFETCHES:      38577 PREFETCH ISSUED TO LOWER LEVEL:   31182562  ACCURACY: 0.123713
 TIMELY PREFETCHES:      38577 LATE PREFETCHES: 0 DROPPED PREFETCHES: 0
LLC6 AVERAGE MISS LATENCY: 572.188 cycles
LLC7 TOTAL     ACCESS: 290344  HIT: 86113  MISS: 204231  HIT %: 29.659  MISS %: 70.341  AVERAGE MISS PENALTY: 572.716
LLC7 LOAD      ACCESS: 19864  HIT: 14126  MISS:  5738  HIT %: 71.1136  MISS %: 28.8864  AVERAGE MISS PENALTY: 677.08
LLC7 RFO       ACCESS:  3311  HIT:  3307  MISS:     4  HIT %: 99.8792  MISS %: 0.120809  AVERAGE MISS PENALTY: 458.25
LLC7 PREFETCH  ACCESS: 240184  HIT: 44552  MISS: 195632  HIT %: 18.5491  MISS %: 81.4509  AVERAGE MISS PENALTY: 578.021
LLC7 WRITEBACK ACCESS: 26985  HIT: 24128  MISS:  2857  HIT %: 89.4126  MISS %: 10.5874  AVERAGE MISS PENALTY: 0
LLC7 PREFETCH  REQUESTED:     0  ISSUED:     0  USEFUL: 39108  USELESS: 1564121
 USEFUL LOAD PREFETCHES:      39108 PREFETCH ISSUED TO LOWER LEVEL:   36205907  ACCURACY: 0.108016
 TIMELY PREFETCHES:      39108 LATE PREFETCHES: 0 DROPPED PREFETCHES: 0
LLC7 AVERAGE MISS LATENCY: 572.716 cycles
ROI Average ROB Stall Cycles:	5.34315
ROI Total ROB Stalls Cycles:	98416385
ROI TOTAL ROB counter      :	18419162
ROI Average Load ROB Stall Cycles:	20.7366
ROI Total Load ROB Stalls Cycle  :	39247535
ROI Total Load ROB stalls Counter:	1892674
Major fault: 0 Minor fault: 21851








Interconnect Stats 
LINK 0 BW : 0LINK 1 BW : 0LINK 2 BW : 0LINK 3 BW : 0LINK 4 BW : 0LINK 5 BW : 0LINK 6 BW : 0LINK 7 BW : 0
DRAM Statistics
 CHANNEL 0
 RQ ROW_BUFFER_HIT: 3510149  ROW_BUFFER_MISS: 3093890
 DBUS_CONGESTED: 5681867
 WQ ROW_BUFFER_HIT: 110338  ROW_BUFFER_MISS: 675561  FULL:     0

 CHANNEL 1
 RQ ROW_BUFFER_HIT: 3551438  ROW_BUFFER_MISS: 3049120
 DBUS_CONGESTED: 5681867
 WQ ROW_BUFFER_HIT: 108947  ROW_BUFFER_MISS: 677714  FULL:     0

 AVG_CONGESTED_CYCLE: 5
DRAM PAGES: 2097152
Allocated PAGES: 174733
L2C destructor called
L1D destructor called
L1I destructor called
STLB destructor called
DTLB destructor called
ITLB destructor called
L2C destructor called
L1D destructor called
L1I destructor called
STLB destructor called
DTLB destructor called
ITLB destructor called
L2C destructor called
L1D destructor called
L1I destructor called
STLB destructor called
DTLB destructor called
ITLB destructor called
L2C destructor called
L1D destructor called
L1I destructor called
STLB destructor called
DTLB destructor called
ITLB destructor called
L2C destructor called
L1D destructor called
L1I destructor called
STLB destructor called
DTLB destructor called
ITLB destructor called
L2C destructor called
L1D destructor called
L1I destructor called
STLB destructor called
DTLB destructor called
ITLB destructor called
L2C destructor called
L1D destructor called
L1I destructor called
STLB destructor called
DTLB destructor called
ITLB destructor called
L2C destructor called
L1D destructor called
L1I destructor called
STLB destructor called
DTLB destructor called
ITLB destructor called
