
*** ChampSim Multicore Out-of-Order Simulator ***

Warmup Instructions: 200000000
Simulation Instructions: 200000000
Number of CPUs: 8
threads:1

L1I Configuration:
L1I_SET:64
L1I_WAY:8
L1I_RQ_SIZE:64
L1I_WQ_SIZE:64
L1I_PQ_SIZE:8
L1I_MSHR_SIZE:8

L1D Configuration:
L1D_SET:64
L1D_WAY:12
L1D_RQ_SIZE:64
L1D_WQ_SIZE:64
L1D_PQ_SIZE:8
L1D_MSHR_SIZE:16

L2C Configuration:
L2C_SET:1024
L2C_WAY:8
L2C_RQ_SIZE:32
L2C_WQ_SIZE:32
L2C_PQ_SIZE:16
L2C_MSHR_SIZE:32

LLC Configuration:
LLC_SET:2048
LLC_WAY:16
LLC SLICES:8
LLC_RQ_SIZE:64
LLC_WQ_SIZE:64
LLC_PQ_SIZE:32
LLC_MSHR_SIZE:64

Interconnect OFF
Attacker deprioritize is: OFF
Off-chip DRAM Size: 8192 MB Channels: 2 Width: 64-bit Data Rate: 3200 MT/s
PAGE SIZE in KB: 4.000000 
PAGE SIZE in MB: 0.003906 
PAGE offset in bits: 12 
CEASER-S_LLC:0
MIRAGE : 0
CEASER_LATENCY:3
REMAP : OFF
Partitions : 1
Multi-Step : OFF
BFS : OFF

CPU 0 runs /home/anubhav/spec_2017/607.cactuBSSN_s-4004B.champsimtrace.xz
CPU 1 runs /home/anubhav/spec_2017/607.cactuBSSN_s-4004B.champsimtrace.xz
CPU 2 runs /home/anubhav/spec_2017/607.cactuBSSN_s-4004B.champsimtrace.xz
CPU 3 runs /home/anubhav/spec_2017/607.cactuBSSN_s-4004B.champsimtrace.xz
CPU 4 runs /home/anubhav/spec_2017/607.cactuBSSN_s-4004B.champsimtrace.xz
CPU 5 runs /home/anubhav/spec_2017/607.cactuBSSN_s-4004B.champsimtrace.xz
CPU 6 runs /home/anubhav/spec_2017/607.cactuBSSN_s-4004B.champsimtrace.xz
CPU 7 runs /home/anubhav/spec_2017/607.cactuBSSN_s-4004B.champsimtrace.xz
CPU 0 Bimodal branch predictor
Initialize Hawkeye state
Initialize Hawkeye state
Initialize Hawkeye state
Initialize Hawkeye state
Initialize Hawkeye state
Initialize Hawkeye state
Initialize Hawkeye state
Initialize Hawkeye state
CPU 1 Bimodal branch predictor
Initialize Hawkeye state
Initialize Hawkeye state
Initialize Hawkeye state
Initialize Hawkeye state
Initialize Hawkeye state
Initialize Hawkeye state
Initialize Hawkeye state
Initialize Hawkeye state
CPU 2 Bimodal branch predictor
Initialize Hawkeye state
Initialize Hawkeye state
Initialize Hawkeye state
Initialize Hawkeye state
Initialize Hawkeye state
Initialize Hawkeye state
Initialize Hawkeye state
Initialize Hawkeye state
CPU 3 Bimodal branch predictor
Initialize Hawkeye state
Initialize Hawkeye state
Initialize Hawkeye state
Initialize Hawkeye state
Initialize Hawkeye state
Initialize Hawkeye state
Initialize Hawkeye state
Initialize Hawkeye state
CPU 4 Bimodal branch predictor
Initialize Hawkeye state
Initialize Hawkeye state
Initialize Hawkeye state
Initialize Hawkeye state
Initialize Hawkeye state
Initialize Hawkeye state
Initialize Hawkeye state
Initialize Hawkeye state
CPU 5 Bimodal branch predictor
Initialize Hawkeye state
Initialize Hawkeye state
Initialize Hawkeye state
Initialize Hawkeye state
Initialize Hawkeye state
Initialize Hawkeye state
Initialize Hawkeye state
Initialize Hawkeye state
CPU 6 Bimodal branch predictor
Initialize Hawkeye state
Initialize Hawkeye state
Initialize Hawkeye state
Initialize Hawkeye state
Initialize Hawkeye state
Initialize Hawkeye state
Initialize Hawkeye state
Initialize Hawkeye state
CPU 7 Bimodal branch predictor
Initialize Hawkeye state
Initialize Hawkeye state
Initialize Hawkeye state
Initialize Hawkeye state
Initialize Hawkeye state
Initialize Hawkeye state
Initialize Hawkeye state
Initialize Hawkeye state
Heartbeat CPU 1 instructions: 10000000 cycles: 5485744 heartbeat IPC: 1.82291 cumulative IPC: 1.82291 (Simulation time: 3 hr 17 min 19 sec) 
 Total Blocks : 262144 Invalid Blocks : 89804
Heartbeat CPU 3 instructions: 10000000 cycles: 5486457 heartbeat IPC: 1.82267 cumulative IPC: 1.82267 (Simulation time: 3 hr 17 min 28 sec) 
 Total Blocks : 262144 Invalid Blocks : 89804
Heartbeat CPU 7 instructions: 10000000 cycles: 5486645 heartbeat IPC: 1.82261 cumulative IPC: 1.82261 (Simulation time: 3 hr 17 min 28 sec) 
 Total Blocks : 262144 Invalid Blocks : 89804
Heartbeat CPU 2 instructions: 10000000 cycles: 5486666 heartbeat IPC: 1.8226 cumulative IPC: 1.8226 (Simulation time: 3 hr 17 min 28 sec) 
 Total Blocks : 262144 Invalid Blocks : 89804
Heartbeat CPU 0 instructions: 10000000 cycles: 5486717 heartbeat IPC: 1.82258 cumulative IPC: 1.82258 (Simulation time: 3 hr 17 min 28 sec) 
 Total Blocks : 262144 Invalid Blocks : 89804
Heartbeat CPU 5 instructions: 10000000 cycles: 5486810 heartbeat IPC: 1.82255 cumulative IPC: 1.82255 (Simulation time: 3 hr 17 min 28 sec) 
 Total Blocks : 262144 Invalid Blocks : 89804
Heartbeat CPU 6 instructions: 10000000 cycles: 5486871 heartbeat IPC: 1.82253 cumulative IPC: 1.82253 (Simulation time: 3 hr 17 min 28 sec) 
 Total Blocks : 262144 Invalid Blocks : 89804
Heartbeat CPU 4 instructions: 10000000 cycles: 5486940 heartbeat IPC: 1.82251 cumulative IPC: 1.82251 (Simulation time: 3 hr 17 min 28 sec) 
 Total Blocks : 262144 Invalid Blocks : 89804
Heartbeat CPU 1 instructions: 20000000 cycles: 10971506 heartbeat IPC: 1.8229 cumulative IPC: 1.8229 (Simulation time: 6 hr 6 min 18 sec) 
 Total Blocks : 262144 Invalid Blocks : 38634
Heartbeat CPU 7 instructions: 20000000 cycles: 10972045 heartbeat IPC: 1.82302 cumulative IPC: 1.82281 (Simulation time: 6 hr 6 min 27 sec) 
 Total Blocks : 262144 Invalid Blocks : 38624
Heartbeat CPU 3 instructions: 20000000 cycles: 10972120 heartbeat IPC: 1.82293 cumulative IPC: 1.8228 (Simulation time: 6 hr 6 min 28 sec) 
 Total Blocks : 262144 Invalid Blocks : 38624
Heartbeat CPU 2 instructions: 20000000 cycles: 10972358 heartbeat IPC: 1.82292 cumulative IPC: 1.82276 (Simulation time: 6 hr 6 min 29 sec) 
 Total Blocks : 262144 Invalid Blocks : 38608
Heartbeat CPU 0 instructions: 20000000 cycles: 10972401 heartbeat IPC: 1.82293 cumulative IPC: 1.82276 (Simulation time: 6 hr 6 min 29 sec) 
 Total Blocks : 262144 Invalid Blocks : 38607
Heartbeat CPU 5 instructions: 20000000 cycles: 10972454 heartbeat IPC: 1.82294 cumulative IPC: 1.82275 (Simulation time: 6 hr 6 min 30 sec) 
 Total Blocks : 262144 Invalid Blocks : 38600
Heartbeat CPU 6 instructions: 20000000 cycles: 10972534 heartbeat IPC: 1.82293 cumulative IPC: 1.82273 (Simulation time: 6 hr 6 min 30 sec) 
 Total Blocks : 262144 Invalid Blocks : 38600
Heartbeat CPU 4 instructions: 20000000 cycles: 10972653 heartbeat IPC: 1.82292 cumulative IPC: 1.82271 (Simulation time: 6 hr 6 min 31 sec) 
 Total Blocks : 262144 Invalid Blocks : 38599
Heartbeat CPU 1 instructions: 30000001 cycles: 16456989 heartbeat IPC: 1.82299 cumulative IPC: 1.82293 (Simulation time: 8 hr 51 min 33 sec) 
 Total Blocks : 262144 Invalid Blocks : 16667
Heartbeat CPU 7 instructions: 30000001 cycles: 16457356 heartbeat IPC: 1.82305 cumulative IPC: 1.82289 (Simulation time: 8 hr 51 min 44 sec) 
 Total Blocks : 262144 Invalid Blocks : 16667
Heartbeat CPU 3 instructions: 30000001 cycles: 16457585 heartbeat IPC: 1.823 cumulative IPC: 1.82287 (Simulation time: 8 hr 51 min 48 sec) 
 Total Blocks : 262144 Invalid Blocks : 16666
Heartbeat CPU 0 instructions: 30000001 cycles: 16457901 heartbeat IPC: 1.82299 cumulative IPC: 1.82283 (Simulation time: 8 hr 51 min 49 sec) 
 Total Blocks : 262144 Invalid Blocks : 16665
Heartbeat CPU 2 instructions: 30000001 cycles: 16457934 heartbeat IPC: 1.82296 cumulative IPC: 1.82283 (Simulation time: 8 hr 51 min 49 sec) 
 Total Blocks : 262144 Invalid Blocks : 16665
Heartbeat CPU 5 instructions: 30000001 cycles: 16457969 heartbeat IPC: 1.82298 cumulative IPC: 1.82283 (Simulation time: 8 hr 51 min 49 sec) 
 Total Blocks : 262144 Invalid Blocks : 16665
Heartbeat CPU 6 instructions: 30000001 cycles: 16458041 heartbeat IPC: 1.82299 cumulative IPC: 1.82282 (Simulation time: 8 hr 51 min 49 sec) 
 Total Blocks : 262144 Invalid Blocks : 16665
Heartbeat CPU 4 instructions: 30000001 cycles: 16458258 heartbeat IPC: 1.82295 cumulative IPC: 1.82279 (Simulation time: 8 hr 51 min 50 sec) 
 Total Blocks : 262144 Invalid Blocks : 16665
Heartbeat CPU 1 instructions: 40000003 cycles: 21941968 heartbeat IPC: 1.82316 cumulative IPC: 1.82299 (Simulation time: 11 hr 23 min 10 sec) 
 Total Blocks : 262144 Invalid Blocks : 7423
Heartbeat CPU 7 instructions: 40000003 cycles: 21942405 heartbeat IPC: 1.82314 cumulative IPC: 1.82295 (Simulation time: 11 hr 23 min 18 sec) 
 Total Blocks : 262144 Invalid Blocks : 7422
Heartbeat CPU 3 instructions: 40000003 cycles: 21942711 heartbeat IPC: 1.82311 cumulative IPC: 1.82293 (Simulation time: 11 hr 23 min 19 sec) 
 Total Blocks : 262144 Invalid Blocks : 7422
Heartbeat CPU 4 instructions: 40000003 cycles: 21942737 heartbeat IPC: 1.82333 cumulative IPC: 1.82293 (Simulation time: 11 hr 23 min 20 sec) 
 Total Blocks : 262144 Invalid Blocks : 7421
Heartbeat CPU 6 instructions: 40000003 cycles: 21942809 heartbeat IPC: 1.82323 cumulative IPC: 1.82292 (Simulation time: 11 hr 23 min 20 sec) 
 Total Blocks : 262144 Invalid Blocks : 7421
Heartbeat CPU 2 instructions: 40000003 cycles: 21942874 heartbeat IPC: 1.82317 cumulative IPC: 1.82292 (Simulation time: 11 hr 23 min 21 sec) 
 Total Blocks : 262144 Invalid Blocks : 7419
Heartbeat CPU 0 instructions: 40000003 cycles: 21943011 heartbeat IPC: 1.82312 cumulative IPC: 1.8229 (Simulation time: 11 hr 23 min 21 sec) 
 Total Blocks : 262144 Invalid Blocks : 7418
Heartbeat CPU 5 instructions: 40000003 cycles: 21943120 heartbeat IPC: 1.8231 cumulative IPC: 1.82289 (Simulation time: 11 hr 23 min 22 sec) 
 Total Blocks : 262144 Invalid Blocks : 7418
Heartbeat CPU 1 instructions: 50000000 cycles: 27427679 heartbeat IPC: 1.82292 cumulative IPC: 1.82298 (Simulation time: 13 hr 38 min 9 sec) 
 Total Blocks : 262144 Invalid Blocks : 3378
Heartbeat CPU 7 instructions: 50000000 cycles: 27428080 heartbeat IPC: 1.82293 cumulative IPC: 1.82295 (Simulation time: 13 hr 38 min 18 sec) 
 Total Blocks : 262144 Invalid Blocks : 3378
Heartbeat CPU 3 instructions: 50000000 cycles: 27428170 heartbeat IPC: 1.823 cumulative IPC: 1.82294 (Simulation time: 13 hr 38 min 21 sec) 
 Total Blocks : 262144 Invalid Blocks : 3378
Heartbeat CPU 4 instructions: 50000000 cycles: 27428391 heartbeat IPC: 1.82294 cumulative IPC: 1.82293 (Simulation time: 13 hr 38 min 23 sec) 
 Total Blocks : 262144 Invalid Blocks : 3378
Heartbeat CPU 6 instructions: 50000000 cycles: 27428599 heartbeat IPC: 1.82289 cumulative IPC: 1.82291 (Simulation time: 13 hr 38 min 23 sec) 
 Total Blocks : 262144 Invalid Blocks : 3378
Heartbeat CPU 2 instructions: 50000000 cycles: 27428624 heartbeat IPC: 1.8229 cumulative IPC: 1.82291 (Simulation time: 13 hr 38 min 23 sec) 
 Total Blocks : 262144 Invalid Blocks : 3378
Heartbeat CPU 0 instructions: 50000000 cycles: 27428788 heartbeat IPC: 1.8229 cumulative IPC: 1.8229 (Simulation time: 13 hr 38 min 28 sec) 
 Total Blocks : 262144 Invalid Blocks : 3378
Heartbeat CPU 5 instructions: 50000000 cycles: 27428864 heartbeat IPC: 1.82291 cumulative IPC: 1.8229 (Simulation time: 13 hr 38 min 28 sec) 
 Total Blocks : 262144 Invalid Blocks : 3378
Heartbeat CPU 1 instructions: 60000001 cycles: 32913703 heartbeat IPC: 1.82281 cumulative IPC: 1.82295 (Simulation time: 15 hr 41 min 5 sec) 
 Total Blocks : 262144 Invalid Blocks : 1556
Heartbeat CPU 7 instructions: 60000001 cycles: 32914069 heartbeat IPC: 1.82283 cumulative IPC: 1.82293 (Simulation time: 15 hr 41 min 11 sec) 
 Total Blocks : 262144 Invalid Blocks : 1556
Heartbeat CPU 3 instructions: 60000001 cycles: 32914235 heartbeat IPC: 1.8228 cumulative IPC: 1.82292 (Simulation time: 15 hr 41 min 12 sec) 
 Total Blocks : 262144 Invalid Blocks : 1556
Heartbeat CPU 4 instructions: 60000001 cycles: 32914297 heartbeat IPC: 1.82285 cumulative IPC: 1.82292 (Simulation time: 15 hr 41 min 12 sec) 
 Total Blocks : 262144 Invalid Blocks : 1556
Heartbeat CPU 2 instructions: 60000001 cycles: 32914593 heartbeat IPC: 1.82283 cumulative IPC: 1.8229 (Simulation time: 15 hr 41 min 13 sec) 
 Total Blocks : 262144 Invalid Blocks : 1556
Heartbeat CPU 6 instructions: 60000001 cycles: 32914686 heartbeat IPC: 1.82279 cumulative IPC: 1.82289 (Simulation time: 15 hr 41 min 13 sec) 
 Total Blocks : 262144 Invalid Blocks : 1556
Heartbeat CPU 0 instructions: 60000001 cycles: 32914832 heartbeat IPC: 1.82281 cumulative IPC: 1.82289 (Simulation time: 15 hr 41 min 14 sec) 
 Total Blocks : 262144 Invalid Blocks : 1556
Heartbeat CPU 5 instructions: 60000001 cycles: 32914861 heartbeat IPC: 1.82282 cumulative IPC: 1.82288 (Simulation time: 15 hr 41 min 14 sec) 
 Total Blocks : 262144 Invalid Blocks : 1556
Heartbeat CPU 1 instructions: 70000001 cycles: 38398991 heartbeat IPC: 1.82306 cumulative IPC: 1.82296 (Simulation time: 17 hr 34 min 3 sec) 
 Total Blocks : 262144 Invalid Blocks : 739
Heartbeat CPU 7 instructions: 70000001 cycles: 38399194 heartbeat IPC: 1.82311 cumulative IPC: 1.82296 (Simulation time: 17 hr 34 min 9 sec) 
 Total Blocks : 262144 Invalid Blocks : 739
Heartbeat CPU 2 instructions: 70000001 cycles: 38399388 heartbeat IPC: 1.82322 cumulative IPC: 1.82295 (Simulation time: 17 hr 34 min 10 sec) 
 Total Blocks : 262144 Invalid Blocks : 739
Heartbeat CPU 3 instructions: 70000001 cycles: 38399409 heartbeat IPC: 1.8231 cumulative IPC: 1.82294 (Simulation time: 17 hr 34 min 10 sec) 
 Total Blocks : 262144 Invalid Blocks : 739
Heartbeat CPU 4 instructions: 70000001 cycles: 38399542 heartbeat IPC: 1.82307 cumulative IPC: 1.82294 (Simulation time: 17 hr 34 min 10 sec) 
 Total Blocks : 262144 Invalid Blocks : 739
Heartbeat CPU 6 instructions: 70000001 cycles: 38399811 heartbeat IPC: 1.82311 cumulative IPC: 1.82293 (Simulation time: 17 hr 34 min 11 sec) 
 Total Blocks : 262144 Invalid Blocks : 739
Heartbeat CPU 5 instructions: 70000001 cycles: 38399929 heartbeat IPC: 1.82313 cumulative IPC: 1.82292 (Simulation time: 17 hr 34 min 11 sec) 
 Total Blocks : 262144 Invalid Blocks : 739
Heartbeat CPU 0 instructions: 70000001 cycles: 38399967 heartbeat IPC: 1.82311 cumulative IPC: 1.82292 (Simulation time: 17 hr 34 min 11 sec) 
 Total Blocks : 262144 Invalid Blocks : 739
Heartbeat CPU 1 instructions: 80000001 cycles: 43884456 heartbeat IPC: 1.823 cumulative IPC: 1.82297 (Simulation time: 19 hr 19 min 11 sec) 
 Total Blocks : 262144 Invalid Blocks : 300
Heartbeat CPU 7 instructions: 80000001 cycles: 43884498 heartbeat IPC: 1.82305 cumulative IPC: 1.82297 (Simulation time: 19 hr 19 min 15 sec) 
 Total Blocks : 262144 Invalid Blocks : 300
Heartbeat CPU 3 instructions: 80000001 cycles: 43884782 heartbeat IPC: 1.82303 cumulative IPC: 1.82296 (Simulation time: 19 hr 19 min 15 sec) 
 Total Blocks : 262144 Invalid Blocks : 300
Heartbeat CPU 6 instructions: 80000001 cycles: 43884819 heartbeat IPC: 1.82315 cumulative IPC: 1.82295 (Simulation time: 19 hr 19 min 15 sec) 
 Total Blocks : 262144 Invalid Blocks : 300
Heartbeat CPU 2 instructions: 80000001 cycles: 43884846 heartbeat IPC: 1.823 cumulative IPC: 1.82295 (Simulation time: 19 hr 19 min 15 sec) 
 Total Blocks : 262144 Invalid Blocks : 300
Heartbeat CPU 4 instructions: 80000001 cycles: 43885133 heartbeat IPC: 1.82296 cumulative IPC: 1.82294 (Simulation time: 19 hr 19 min 16 sec) 
 Total Blocks : 262144 Invalid Blocks : 300
Heartbeat CPU 5 instructions: 80000001 cycles: 43885315 heartbeat IPC: 1.82303 cumulative IPC: 1.82293 (Simulation time: 19 hr 19 min 16 sec) 
 Total Blocks : 262144 Invalid Blocks : 300
Heartbeat CPU 0 instructions: 80000001 cycles: 43885436 heartbeat IPC: 1.823 cumulative IPC: 1.82293 (Simulation time: 19 hr 19 min 16 sec) 
 Total Blocks : 262144 Invalid Blocks : 300
Heartbeat CPU 1 instructions: 90000001 cycles: 49369877 heartbeat IPC: 1.82301 cumulative IPC: 1.82297 (Simulation time: 21 hr 3 min 27 sec) 
 Total Blocks : 262144 Invalid Blocks : 141
Heartbeat CPU 7 instructions: 90000001 cycles: 49370483 heartbeat IPC: 1.82283 cumulative IPC: 1.82295 (Simulation time: 21 hr 3 min 33 sec) 
 Total Blocks : 262144 Invalid Blocks : 141
Heartbeat CPU 3 instructions: 90000001 cycles: 49370710 heartbeat IPC: 1.82285 cumulative IPC: 1.82294 (Simulation time: 21 hr 3 min 33 sec) 
 Total Blocks : 262144 Invalid Blocks : 141
Heartbeat CPU 6 instructions: 90000001 cycles: 49370850 heartbeat IPC: 1.82281 cumulative IPC: 1.82294 (Simulation time: 21 hr 3 min 34 sec) 
 Total Blocks : 262144 Invalid Blocks : 141
Heartbeat CPU 2 instructions: 90000001 cycles: 49370918 heartbeat IPC: 1.8228 cumulative IPC: 1.82294 (Simulation time: 21 hr 3 min 34 sec) 
 Total Blocks : 262144 Invalid Blocks : 141
Heartbeat CPU 0 instructions: 90000001 cycles: 49371123 heartbeat IPC: 1.82293 cumulative IPC: 1.82293 (Simulation time: 21 hr 3 min 34 sec) 
 Total Blocks : 262144 Invalid Blocks : 141
Heartbeat CPU 4 instructions: 90000001 cycles: 49371136 heartbeat IPC: 1.82282 cumulative IPC: 1.82293 (Simulation time: 21 hr 3 min 34 sec) 
 Total Blocks : 262144 Invalid Blocks : 141
Heartbeat CPU 5 instructions: 90000001 cycles: 49371354 heartbeat IPC: 1.82281 cumulative IPC: 1.82292 (Simulation time: 21 hr 3 min 34 sec) 
 Total Blocks : 262144 Invalid Blocks : 141
Heartbeat CPU 1 instructions: 100000003 cycles: 54855214 heartbeat IPC: 1.82304 cumulative IPC: 1.82298 (Simulation time: 22 hr 41 min 26 sec) 
 Total Blocks : 262144 Invalid Blocks : 78
Heartbeat CPU 7 instructions: 100000003 cycles: 54855461 heartbeat IPC: 1.82316 cumulative IPC: 1.82297 (Simulation time: 22 hr 41 min 29 sec) 
 Total Blocks : 262144 Invalid Blocks : 78
Heartbeat CPU 3 instructions: 100000003 cycles: 54856067 heartbeat IPC: 1.82304 cumulative IPC: 1.82295 (Simulation time: 22 hr 41 min 30 sec) 
 Total Blocks : 262144 Invalid Blocks : 78
Heartbeat CPU 0 instructions: 100000003 cycles: 54856172 heartbeat IPC: 1.82314 cumulative IPC: 1.82295 (Simulation time: 22 hr 41 min 30 sec) 
 Total Blocks : 262144 Invalid Blocks : 78
Heartbeat CPU 6 instructions: 100000003 cycles: 54856214 heartbeat IPC: 1.82303 cumulative IPC: 1.82295 (Simulation time: 22 hr 41 min 30 sec) 
 Total Blocks : 262144 Invalid Blocks : 78
Heartbeat CPU 2 instructions: 100000003 cycles: 54856272 heartbeat IPC: 1.82304 cumulative IPC: 1.82295 (Simulation time: 22 hr 41 min 30 sec) 
 Total Blocks : 262144 Invalid Blocks : 78
Heartbeat CPU 4 instructions: 100000003 cycles: 54856460 heartbeat IPC: 1.82305 cumulative IPC: 1.82294 (Simulation time: 22 hr 41 min 31 sec) 
 Total Blocks : 262144 Invalid Blocks : 78
Heartbeat CPU 5 instructions: 100000003 cycles: 54856640 heartbeat IPC: 1.82306 cumulative IPC: 1.82293 (Simulation time: 22 hr 41 min 31 sec) 
 Total Blocks : 262144 Invalid Blocks : 78
Heartbeat CPU 1 instructions: 110000000 cycles: 60340695 heartbeat IPC: 1.82299 cumulative IPC: 1.82298 (Simulation time: 24 hr 18 min 37 sec) 
 Total Blocks : 262144 Invalid Blocks : 37
Heartbeat CPU 7 instructions: 110000000 cycles: 60341034 heartbeat IPC: 1.82296 cumulative IPC: 1.82297 (Simulation time: 24 hr 18 min 39 sec) 
 Total Blocks : 262144 Invalid Blocks : 37
Heartbeat CPU 3 instructions: 110000000 cycles: 60341637 heartbeat IPC: 1.82296 cumulative IPC: 1.82295 (Simulation time: 24 hr 18 min 40 sec) 
 Total Blocks : 262144 Invalid Blocks : 37
Heartbeat CPU 0 instructions: 110000000 cycles: 60341664 heartbeat IPC: 1.82299 cumulative IPC: 1.82295 (Simulation time: 24 hr 18 min 40 sec) 
 Total Blocks : 262144 Invalid Blocks : 37
Heartbeat CPU 6 instructions: 110000000 cycles: 60341842 heartbeat IPC: 1.82294 cumulative IPC: 1.82295 (Simulation time: 24 hr 18 min 40 sec) 
 Total Blocks : 262144 Invalid Blocks : 37
Heartbeat CPU 2 instructions: 110000000 cycles: 60341907 heartbeat IPC: 1.82294 cumulative IPC: 1.82295 (Simulation time: 24 hr 18 min 40 sec) 
 Total Blocks : 262144 Invalid Blocks : 37
Heartbeat CPU 4 instructions: 110000000 cycles: 60342121 heartbeat IPC: 1.82293 cumulative IPC: 1.82294 (Simulation time: 24 hr 18 min 40 sec) 
 Total Blocks : 262144 Invalid Blocks : 37
Heartbeat CPU 5 instructions: 110000000 cycles: 60342214 heartbeat IPC: 1.82296 cumulative IPC: 1.82294 (Simulation time: 24 hr 18 min 40 sec) 
 Total Blocks : 262144 Invalid Blocks : 37
Heartbeat CPU 1 instructions: 120000000 cycles: 65825948 heartbeat IPC: 1.82307 cumulative IPC: 1.82299 (Simulation time: 25 hr 49 min 0 sec) 
 Total Blocks : 262144 Invalid Blocks : 22
Heartbeat CPU 7 instructions: 120000000 cycles: 65826281 heartbeat IPC: 1.82307 cumulative IPC: 1.82298 (Simulation time: 25 hr 49 min 3 sec) 
 Total Blocks : 262144 Invalid Blocks : 22
Heartbeat CPU 0 instructions: 120000000 cycles: 65826749 heartbeat IPC: 1.82313 cumulative IPC: 1.82297 (Simulation time: 25 hr 49 min 3 sec) 
 Total Blocks : 262144 Invalid Blocks : 22
Heartbeat CPU 3 instructions: 120000000 cycles: 65826889 heartbeat IPC: 1.82307 cumulative IPC: 1.82296 (Simulation time: 25 hr 49 min 3 sec) 
 Total Blocks : 262144 Invalid Blocks : 22
Heartbeat CPU 5 instructions: 120000000 cycles: 65826996 heartbeat IPC: 1.82323 cumulative IPC: 1.82296 (Simulation time: 25 hr 49 min 4 sec) 
 Total Blocks : 262144 Invalid Blocks : 22
Heartbeat CPU 6 instructions: 120000000 cycles: 65827136 heartbeat IPC: 1.82306 cumulative IPC: 1.82296 (Simulation time: 25 hr 49 min 4 sec) 
 Total Blocks : 262144 Invalid Blocks : 22
Heartbeat CPU 2 instructions: 120000000 cycles: 65827230 heartbeat IPC: 1.82305 cumulative IPC: 1.82295 (Simulation time: 25 hr 49 min 4 sec) 
 Total Blocks : 262144 Invalid Blocks : 22
Heartbeat CPU 4 instructions: 120000000 cycles: 65827360 heartbeat IPC: 1.82307 cumulative IPC: 1.82295 (Simulation time: 25 hr 49 min 4 sec) 
 Total Blocks : 262144 Invalid Blocks : 22
Heartbeat CPU 1 instructions: 130000003 cycles: 71311660 heartbeat IPC: 1.82292 cumulative IPC: 1.82298 (Simulation time: 27 hr 23 min 21 sec) 
 Total Blocks : 262144 Invalid Blocks : 8
Heartbeat CPU 7 instructions: 130000003 cycles: 71312024 heartbeat IPC: 1.82291 cumulative IPC: 1.82297 (Simulation time: 27 hr 23 min 34 sec) 
 Total Blocks : 262144 Invalid Blocks : 8
Heartbeat CPU 0 instructions: 130000003 cycles: 71312513 heartbeat IPC: 1.8229 cumulative IPC: 1.82296 (Simulation time: 27 hr 23 min 36 sec) 
 Total Blocks : 262144 Invalid Blocks : 8
Heartbeat CPU 5 instructions: 130000003 cycles: 71312566 heartbeat IPC: 1.82297 cumulative IPC: 1.82296 (Simulation time: 27 hr 23 min 36 sec) 
 Total Blocks : 262144 Invalid Blocks : 8
Heartbeat CPU 3 instructions: 130000003 cycles: 71312619 heartbeat IPC: 1.82291 cumulative IPC: 1.82296 (Simulation time: 27 hr 23 min 36 sec) 
 Total Blocks : 262144 Invalid Blocks : 8
Heartbeat CPU 2 instructions: 130000003 cycles: 71312700 heartbeat IPC: 1.823 cumulative IPC: 1.82296 (Simulation time: 27 hr 23 min 36 sec) 
 Total Blocks : 262144 Invalid Blocks : 8
Heartbeat CPU 6 instructions: 130000003 cycles: 71312822 heartbeat IPC: 1.82293 cumulative IPC: 1.82295 (Simulation time: 27 hr 23 min 36 sec) 
 Total Blocks : 262144 Invalid Blocks : 8
Heartbeat CPU 4 instructions: 130000003 cycles: 71313137 heartbeat IPC: 1.8229 cumulative IPC: 1.82295 (Simulation time: 27 hr 23 min 37 sec) 
 Total Blocks : 262144 Invalid Blocks : 8
Heartbeat CPU 1 instructions: 140000003 cycles: 76797412 heartbeat IPC: 1.8229 cumulative IPC: 1.82298 (Simulation time: 28 hr 53 min 23 sec) 
 Total Blocks : 262144 Invalid Blocks : 5
Heartbeat CPU 7 instructions: 140000003 cycles: 76797471 heartbeat IPC: 1.82301 cumulative IPC: 1.82298 (Simulation time: 28 hr 53 min 25 sec) 
 Total Blocks : 262144 Invalid Blocks : 5
Heartbeat CPU 0 instructions: 140000003 cycles: 76798354 heartbeat IPC: 1.82287 cumulative IPC: 1.82296 (Simulation time: 28 hr 53 min 25 sec) 
 Total Blocks : 262144 Invalid Blocks : 5
Heartbeat CPU 5 instructions: 140000003 cycles: 76798415 heartbeat IPC: 1.82287 cumulative IPC: 1.82295 (Simulation time: 28 hr 53 min 25 sec) 
 Total Blocks : 262144 Invalid Blocks : 5
Heartbeat CPU 3 instructions: 140000003 cycles: 76798453 heartbeat IPC: 1.82288 cumulative IPC: 1.82295 (Simulation time: 28 hr 53 min 25 sec) 
 Total Blocks : 262144 Invalid Blocks : 5
Heartbeat CPU 2 instructions: 140000003 cycles: 76798525 heartbeat IPC: 1.82288 cumulative IPC: 1.82295 (Simulation time: 28 hr 53 min 25 sec) 
 Total Blocks : 262144 Invalid Blocks : 5
Heartbeat CPU 6 instructions: 140000003 cycles: 76798679 heartbeat IPC: 1.82287 cumulative IPC: 1.82295 (Simulation time: 28 hr 53 min 25 sec) 
 Total Blocks : 262144 Invalid Blocks : 5
Heartbeat CPU 4 instructions: 140000003 cycles: 76798992 heartbeat IPC: 1.82287 cumulative IPC: 1.82294 (Simulation time: 28 hr 53 min 25 sec) 
 Total Blocks : 262144 Invalid Blocks : 5
Heartbeat CPU 7 instructions: 150000000 cycles: 82283129 heartbeat IPC: 1.82293 cumulative IPC: 1.82297 (Simulation time: 30 hr 24 min 0 sec) 
 Total Blocks : 262144 Invalid Blocks : 3
Heartbeat CPU 1 instructions: 150000000 cycles: 82283197 heartbeat IPC: 1.82289 cumulative IPC: 1.82297 (Simulation time: 30 hr 24 min 3 sec) 
 Total Blocks : 262144 Invalid Blocks : 3
Heartbeat CPU 0 instructions: 150000000 cycles: 82284102 heartbeat IPC: 1.8229 cumulative IPC: 1.82295 (Simulation time: 30 hr 24 min 4 sec) 
 Total Blocks : 262144 Invalid Blocks : 3
Heartbeat CPU 2 instructions: 150000000 cycles: 82284134 heartbeat IPC: 1.82295 cumulative IPC: 1.82295 (Simulation time: 30 hr 24 min 4 sec) 
 Total Blocks : 262144 Invalid Blocks : 3
Heartbeat CPU 3 instructions: 150000000 cycles: 82284353 heartbeat IPC: 1.82285 cumulative IPC: 1.82295 (Simulation time: 30 hr 24 min 4 sec) 
 Total Blocks : 262144 Invalid Blocks : 3
Heartbeat CPU 5 instructions: 150000000 cycles: 82284405 heartbeat IPC: 1.82282 cumulative IPC: 1.82295 (Simulation time: 30 hr 24 min 4 sec) 
 Total Blocks : 262144 Invalid Blocks : 3
Heartbeat CPU 6 instructions: 150000000 cycles: 82284441 heartbeat IPC: 1.8229 cumulative IPC: 1.82294 (Simulation time: 30 hr 24 min 4 sec) 
 Total Blocks : 262144 Invalid Blocks : 3
Heartbeat CPU 4 instructions: 150000000 cycles: 82285064 heartbeat IPC: 1.8228 cumulative IPC: 1.82293 (Simulation time: 30 hr 24 min 5 sec) 
 Total Blocks : 262144 Invalid Blocks : 3
Heartbeat CPU 1 instructions: 160000002 cycles: 87766280 heartbeat IPC: 1.82379 cumulative IPC: 1.82302 (Simulation time: 31 hr 50 min 52 sec) 
 Total Blocks : 262144 Invalid Blocks : 2
Heartbeat CPU 7 instructions: 160000002 cycles: 87767152 heartbeat IPC: 1.82348 cumulative IPC: 1.82301 (Simulation time: 31 hr 50 min 55 sec) 
 Total Blocks : 262144 Invalid Blocks : 2
Heartbeat CPU 2 instructions: 160000002 cycles: 87768601 heartbeat IPC: 1.82333 cumulative IPC: 1.82298 (Simulation time: 31 hr 50 min 55 sec) 
 Total Blocks : 262144 Invalid Blocks : 2
Heartbeat CPU 0 instructions: 160000002 cycles: 87768881 heartbeat IPC: 1.82323 cumulative IPC: 1.82297 (Simulation time: 31 hr 50 min 55 sec) 
 Total Blocks : 262144 Invalid Blocks : 2
Heartbeat CPU 3 instructions: 160000002 cycles: 87768944 heartbeat IPC: 1.82329 cumulative IPC: 1.82297 (Simulation time: 31 hr 50 min 55 sec) 
 Total Blocks : 262144 Invalid Blocks : 2
Heartbeat CPU 5 instructions: 160000002 cycles: 87769120 heartbeat IPC: 1.82325 cumulative IPC: 1.82296 (Simulation time: 31 hr 50 min 56 sec) 
 Total Blocks : 262144 Invalid Blocks : 2
Heartbeat CPU 6 instructions: 160000002 cycles: 87769188 heartbeat IPC: 1.82324 cumulative IPC: 1.82296 (Simulation time: 31 hr 50 min 56 sec) 
 Total Blocks : 262144 Invalid Blocks : 2
Heartbeat CPU 4 instructions: 160000002 cycles: 87769270 heartbeat IPC: 1.82342 cumulative IPC: 1.82296 (Simulation time: 31 hr 50 min 56 sec) 
 Total Blocks : 262144 Invalid Blocks : 2
Heartbeat CPU 1 instructions: 170000001 cycles: 93252074 heartbeat IPC: 1.82289 cumulative IPC: 1.82302 (Simulation time: 33 hr 12 min 46 sec) 
 Total Blocks : 262144 Invalid Blocks : 1
Heartbeat CPU 7 instructions: 170000001 cycles: 93252703 heartbeat IPC: 1.82297 cumulative IPC: 1.823 (Simulation time: 33 hr 12 min 49 sec) 
 Total Blocks : 262144 Invalid Blocks : 1
Heartbeat CPU 2 instructions: 170000001 cycles: 93254396 heartbeat IPC: 1.82289 cumulative IPC: 1.82297 (Simulation time: 33 hr 12 min 50 sec) 
 Total Blocks : 262144 Invalid Blocks : 1
Heartbeat CPU 0 instructions: 170000001 cycles: 93254627 heartbeat IPC: 1.82291 cumulative IPC: 1.82297 (Simulation time: 33 hr 12 min 50 sec) 
 Total Blocks : 262144 Invalid Blocks : 1
Heartbeat CPU 3 instructions: 170000001 cycles: 93254801 heartbeat IPC: 1.82287 cumulative IPC: 1.82296 (Simulation time: 33 hr 12 min 50 sec) 
 Total Blocks : 262144 Invalid Blocks : 1
Heartbeat CPU 5 instructions: 170000001 cycles: 93254840 heartbeat IPC: 1.82291 cumulative IPC: 1.82296 (Simulation time: 33 hr 12 min 50 sec) 
 Total Blocks : 262144 Invalid Blocks : 1
Heartbeat CPU 6 instructions: 170000001 cycles: 93255019 heartbeat IPC: 1.82288 cumulative IPC: 1.82296 (Simulation time: 33 hr 12 min 50 sec) 
 Total Blocks : 262144 Invalid Blocks : 1
Heartbeat CPU 4 instructions: 170000001 cycles: 93255055 heartbeat IPC: 1.82289 cumulative IPC: 1.82296 (Simulation time: 33 hr 12 min 50 sec) 
 Total Blocks : 262144 Invalid Blocks : 1
Heartbeat CPU 1 instructions: 180000000 cycles: 98737681 heartbeat IPC: 1.82295 cumulative IPC: 1.82301 (Simulation time: 34 hr 34 min 17 sec) 
 Total Blocks : 262144 Invalid Blocks : 0
Heartbeat CPU 7 instructions: 180000000 cycles: 98737935 heartbeat IPC: 1.82308 cumulative IPC: 1.82301 (Simulation time: 34 hr 34 min 35 sec) 
 Total Blocks : 262144 Invalid Blocks : 0
Heartbeat CPU 2 instructions: 180000000 cycles: 98739949 heartbeat IPC: 1.82297 cumulative IPC: 1.82297 (Simulation time: 34 hr 34 min 37 sec) 
 Total Blocks : 262144 Invalid Blocks : 0
Heartbeat CPU 0 instructions: 180000000 cycles: 98740194 heartbeat IPC: 1.82297 cumulative IPC: 1.82297 (Simulation time: 34 hr 34 min 37 sec) 
 Total Blocks : 262144 Invalid Blocks : 0
Heartbeat CPU 3 instructions: 180000000 cycles: 98740398 heartbeat IPC: 1.82296 cumulative IPC: 1.82296 (Simulation time: 34 hr 34 min 37 sec) 
 Total Blocks : 262144 Invalid Blocks : 0
Heartbeat CPU 5 instructions: 180000000 cycles: 98740432 heartbeat IPC: 1.82296 cumulative IPC: 1.82296 (Simulation time: 34 hr 34 min 37 sec) 
 Total Blocks : 262144 Invalid Blocks : 0
Heartbeat CPU 6 instructions: 180000000 cycles: 98740590 heartbeat IPC: 1.82296 cumulative IPC: 1.82296 (Simulation time: 34 hr 34 min 38 sec) 
 Total Blocks : 262144 Invalid Blocks : 0
Heartbeat CPU 4 instructions: 180000000 cycles: 98740657 heartbeat IPC: 1.82295 cumulative IPC: 1.82296 (Simulation time: 34 hr 34 min 38 sec) 
 Total Blocks : 262144 Invalid Blocks : 0
Heartbeat CPU 1 instructions: 190000002 cycles: 104223485 heartbeat IPC: 1.82289 cumulative IPC: 1.82301 (Simulation time: 35 hr 54 min 5 sec) 
 Total Blocks : 262144 Invalid Blocks : 0
Heartbeat CPU 7 instructions: 190000002 cycles: 104223719 heartbeat IPC: 1.82289 cumulative IPC: 1.823 (Simulation time: 35 hr 54 min 7 sec) 
 Total Blocks : 262144 Invalid Blocks : 0
Heartbeat CPU 2 instructions: 190000002 cycles: 104225681 heartbeat IPC: 1.82291 cumulative IPC: 1.82297 (Simulation time: 35 hr 54 min 8 sec) 
 Total Blocks : 262144 Invalid Blocks : 0
Heartbeat CPU 0 instructions: 190000002 cycles: 104225992 heartbeat IPC: 1.82289 cumulative IPC: 1.82296 (Simulation time: 35 hr 54 min 9 sec) 
 Total Blocks : 262144 Invalid Blocks : 0
Heartbeat CPU 3 instructions: 190000002 cycles: 104226137 heartbeat IPC: 1.82291 cumulative IPC: 1.82296 (Simulation time: 35 hr 54 min 9 sec) 
 Total Blocks : 262144 Invalid Blocks : 0
Heartbeat CPU 4 instructions: 190000002 cycles: 104226168 heartbeat IPC: 1.82298 cumulative IPC: 1.82296 (Simulation time: 35 hr 54 min 9 sec) 
 Total Blocks : 262144 Invalid Blocks : 0
Heartbeat CPU 5 instructions: 190000002 cycles: 104226226 heartbeat IPC: 1.82289 cumulative IPC: 1.82296 (Simulation time: 35 hr 54 min 9 sec) 
 Total Blocks : 262144 Invalid Blocks : 0
Heartbeat CPU 6 instructions: 190000002 cycles: 104226411 heartbeat IPC: 1.82288 cumulative IPC: 1.82295 (Simulation time: 35 hr 54 min 9 sec) 
 Total Blocks : 262144 Invalid Blocks : 0
Heartbeat CPU 1 instructions: 200000002 cycles: 109708600 heartbeat IPC: 1.82312 cumulative IPC: 1.82301 (Simulation time: 37 hr 11 min 32 sec) 
 Total Blocks : 262144 Invalid Blocks : 0
Heartbeat CPU 7 instructions: 200000002 cycles: 109708812 heartbeat IPC: 1.82312 cumulative IPC: 1.82301 (Simulation time: 37 hr 11 min 35 sec) 
 Total Blocks : 262144 Invalid Blocks : 0
Heartbeat CPU 2 instructions: 200000002 cycles: 109710797 heartbeat IPC: 1.82312 cumulative IPC: 1.82297 (Simulation time: 37 hr 11 min 37 sec) 
 Total Blocks : 262144 Invalid Blocks : 0
Heartbeat CPU 0 instructions: 200000002 cycles: 109711166 heartbeat IPC: 1.8231 cumulative IPC: 1.82297 (Simulation time: 37 hr 11 min 37 sec) 
 Total Blocks : 262144 Invalid Blocks : 0
Heartbeat CPU 3 instructions: 200000002 cycles: 109711272 heartbeat IPC: 1.82311 cumulative IPC: 1.82297 (Simulation time: 37 hr 11 min 37 sec) 
 Total Blocks : 262144 Invalid Blocks : 0
Heartbeat CPU 5 instructions: 200000002 cycles: 109711298 heartbeat IPC: 1.82313 cumulative IPC: 1.82297 (Simulation time: 37 hr 11 min 37 sec) 
 Total Blocks : 262144 Invalid Blocks : 0
Heartbeat CPU 4 instructions: 200000002 cycles: 109711342 heartbeat IPC: 1.8231 cumulative IPC: 1.82297 (Simulation time: 37 hr 11 min 37 sec) 
 Total Blocks : 262144 Invalid Blocks : 0
Heartbeat CPU 6 instructions: 200000002 cycles: 109711565 heartbeat IPC: 1.8231 cumulative IPC: 1.82296 (Simulation time: 37 hr 11 min 37 sec) 
 Total Blocks : 262144 Invalid Blocks : 0

Warmup complete CPU 0 instructions: 200000769 cycles: 109711565 (Simulation time: 37 hr 11 min 37 sec) 
Warmup complete CPU 1 instructions: 200005351 cycles: 109711565 (Simulation time: 37 hr 11 min 37 sec) 
Warmup complete CPU 2 instructions: 200001186 cycles: 109711565 (Simulation time: 37 hr 11 min 37 sec) 
Warmup complete CPU 3 instructions: 200000546 cycles: 109711565 (Simulation time: 37 hr 11 min 37 sec) 
Warmup complete CPU 4 instructions: 200000418 cycles: 109711565 (Simulation time: 37 hr 11 min 37 sec) 
Warmup complete CPU 5 instructions: 200000442 cycles: 109711565 (Simulation time: 37 hr 11 min 37 sec) 
Warmup complete CPU 6 instructions: 200000002 cycles: 109711565 (Simulation time: 37 hr 11 min 37 sec) 
Warmup complete CPU 7 instructions: 200004659 cycles: 109711564 (Simulation time: 37 hr 11 min 37 sec) 

Heartbeat CPU 1 instructions: 210000000 cycles: 118213827 heartbeat IPC: 1.17575 cumulative IPC: 1.17553 (Simulation time: 38 hr 38 min 44 sec) 
 Total Blocks : 262144 Invalid Blocks : 0
Heartbeat CPU 0 instructions: 210000000 cycles: 118221420 heartbeat IPC: 1.17505 cumulative IPC: 1.17502 (Simulation time: 38 hr 38 min 50 sec) 
 Total Blocks : 262144 Invalid Blocks : 0
Heartbeat CPU 7 instructions: 210000000 cycles: 118227436 heartbeat IPC: 1.1739 cumulative IPC: 1.17373 (Simulation time: 38 hr 38 min 55 sec) 
 Total Blocks : 262144 Invalid Blocks : 0
Heartbeat CPU 2 instructions: 210000000 cycles: 118230190 heartbeat IPC: 1.17379 cumulative IPC: 1.17376 (Simulation time: 38 hr 38 min 56 sec) 
 Total Blocks : 262144 Invalid Blocks : 0
Heartbeat CPU 6 instructions: 210000000 cycles: 118233350 heartbeat IPC: 1.17346 cumulative IPC: 1.17346 (Simulation time: 38 hr 38 min 57 sec) 
 Total Blocks : 262144 Invalid Blocks : 0
Heartbeat CPU 4 instructions: 210000000 cycles: 118240156 heartbeat IPC: 1.1725 cumulative IPC: 1.17248 (Simulation time: 38 hr 38 min 59 sec) 
 Total Blocks : 262144 Invalid Blocks : 0
Heartbeat CPU 3 instructions: 210000000 cycles: 118251550 heartbeat IPC: 1.17092 cumulative IPC: 1.1709 (Simulation time: 38 hr 39 min 18 sec) 
 Total Blocks : 262144 Invalid Blocks : 0
Heartbeat CPU 5 instructions: 210000000 cycles: 118255020 heartbeat IPC: 1.17045 cumulative IPC: 1.17043 (Simulation time: 38 hr 39 min 19 sec) 
 Total Blocks : 262144 Invalid Blocks : 0
Heartbeat CPU 1 instructions: 220000000 cycles: 126726279 heartbeat IPC: 1.17475 cumulative IPC: 1.17514 (Simulation time: 40 hr 2 min 53 sec) 
 Total Blocks : 262144 Invalid Blocks : 0
Heartbeat CPU 0 instructions: 220000000 cycles: 126735227 heartbeat IPC: 1.17456 cumulative IPC: 1.17479 (Simulation time: 40 hr 2 min 58 sec) 
 Total Blocks : 262144 Invalid Blocks : 0
Heartbeat CPU 7 instructions: 220000000 cycles: 126744365 heartbeat IPC: 1.17413 cumulative IPC: 1.17393 (Simulation time: 40 hr 3 min 1 sec) 
 Total Blocks : 262144 Invalid Blocks : 0
Heartbeat CPU 6 instructions: 220000000 cycles: 126748120 heartbeat IPC: 1.17443 cumulative IPC: 1.17395 (Simulation time: 40 hr 3 min 4 sec) 
 Total Blocks : 262144 Invalid Blocks : 0
Heartbeat CPU 3 instructions: 220000000 cycles: 126763603 heartbeat IPC: 1.1748 cumulative IPC: 1.17285 (Simulation time: 40 hr 3 min 8 sec) 
 Total Blocks : 262144 Invalid Blocks : 0
Heartbeat CPU 4 instructions: 220000000 cycles: 126766464 heartbeat IPC: 1.17284 cumulative IPC: 1.17266 (Simulation time: 40 hr 3 min 9 sec) 
 Total Blocks : 262144 Invalid Blocks : 0
Heartbeat CPU 5 instructions: 220000000 cycles: 126772981 heartbeat IPC: 1.17399 cumulative IPC: 1.17221 (Simulation time: 40 hr 3 min 18 sec) 
 Total Blocks : 262144 Invalid Blocks : 0
Heartbeat CPU 2 instructions: 220000000 cycles: 126778271 heartbeat IPC: 1.16985 cumulative IPC: 1.1718 (Simulation time: 40 hr 3 min 28 sec) 
 Total Blocks : 262144 Invalid Blocks : 0
Heartbeat CPU 1 instructions: 230000000 cycles: 135241468 heartbeat IPC: 1.17437 cumulative IPC: 1.17488 (Simulation time: 41 hr 30 min 29 sec) 
 Total Blocks : 262144 Invalid Blocks : 0
Heartbeat CPU 0 instructions: 230000000 cycles: 135245445 heartbeat IPC: 1.17506 cumulative IPC: 1.17488 (Simulation time: 41 hr 30 min 32 sec) 
 Total Blocks : 262144 Invalid Blocks : 0
Heartbeat CPU 7 instructions: 230000000 cycles: 135272756 heartbeat IPC: 1.17255 cumulative IPC: 1.17347 (Simulation time: 41 hr 30 min 56 sec) 
 Total Blocks : 262144 Invalid Blocks : 0
Heartbeat CPU 6 instructions: 230000000 cycles: 135276476 heartbeat IPC: 1.17256 cumulative IPC: 1.17348 (Simulation time: 41 hr 30 min 59 sec) 
 Total Blocks : 262144 Invalid Blocks : 0
Heartbeat CPU 4 instructions: 230000000 cycles: 135286215 heartbeat IPC: 1.17374 cumulative IPC: 1.17302 (Simulation time: 41 hr 31 min 2 sec) 
 Total Blocks : 262144 Invalid Blocks : 0
Heartbeat CPU 3 instructions: 230000000 cycles: 135295110 heartbeat IPC: 1.17213 cumulative IPC: 1.17261 (Simulation time: 41 hr 31 min 5 sec) 
 Total Blocks : 262144 Invalid Blocks : 0
Heartbeat CPU 5 instructions: 230000000 cycles: 135301387 heartbeat IPC: 1.17255 cumulative IPC: 1.17232 (Simulation time: 41 hr 31 min 7 sec) 
 Total Blocks : 262144 Invalid Blocks : 0
Heartbeat CPU 2 instructions: 230000000 cycles: 135303696 heartbeat IPC: 1.17296 cumulative IPC: 1.17219 (Simulation time: 41 hr 31 min 8 sec) 
 Total Blocks : 262144 Invalid Blocks : 0
Heartbeat CPU 1 instructions: 240000001 cycles: 143879888 heartbeat IPC: 1.15762 cumulative IPC: 1.17052 (Simulation time: 42 hr 59 min 47 sec) 
 Total Blocks : 262144 Invalid Blocks : 0
Heartbeat CPU 0 instructions: 240000001 cycles: 143882271 heartbeat IPC: 1.15783 cumulative IPC: 1.17057 (Simulation time: 42 hr 59 min 50 sec) 
 Total Blocks : 262144 Invalid Blocks : 0
Heartbeat CPU 6 instructions: 240000001 cycles: 143946737 heartbeat IPC: 1.15337 cumulative IPC: 1.16839 (Simulation time: 43 hr 0 min 18 sec) 
 Total Blocks : 262144 Invalid Blocks : 0
Heartbeat CPU 7 instructions: 240000001 cycles: 143974374 heartbeat IPC: 1.14921 cumulative IPC: 1.16731 (Simulation time: 43 hr 0 min 45 sec) 
 Total Blocks : 262144 Invalid Blocks : 0
Heartbeat CPU 3 instructions: 240000001 cycles: 143980309 heartbeat IPC: 1.15138 cumulative IPC: 1.16723 (Simulation time: 43 hr 0 min 51 sec) 
 Total Blocks : 262144 Invalid Blocks : 0
Heartbeat CPU 4 instructions: 240000001 cycles: 143986507 heartbeat IPC: 1.14939 cumulative IPC: 1.16702 (Simulation time: 43 hr 0 min 53 sec) 
 Total Blocks : 262144 Invalid Blocks : 0
Heartbeat CPU 5 instructions: 240000001 cycles: 144000699 heartbeat IPC: 1.14952 cumulative IPC: 1.16654 (Simulation time: 43 hr 0 min 58 sec) 
 Total Blocks : 262144 Invalid Blocks : 0
Heartbeat CPU 2 instructions: 240000001 cycles: 144010217 heartbeat IPC: 1.14856 cumulative IPC: 1.16619 (Simulation time: 43 hr 1 min 2 sec) 
 Total Blocks : 262144 Invalid Blocks : 0
Heartbeat CPU 0 instructions: 250000003 cycles: 152389709 heartbeat IPC: 1.17544 cumulative IPC: 1.17154 (Simulation time: 44 hr 23 min 40 sec) 
 Total Blocks : 262144 Invalid Blocks : 0
Heartbeat CPU 1 instructions: 250000003 cycles: 152398358 heartbeat IPC: 1.17392 cumulative IPC: 1.1712 (Simulation time: 44 hr 23 min 45 sec) 
 Total Blocks : 262144 Invalid Blocks : 0
Heartbeat CPU 6 instructions: 250000003 cycles: 152456951 heartbeat IPC: 1.17506 cumulative IPC: 1.16972 (Simulation time: 44 hr 24 min 10 sec) 
 Total Blocks : 262144 Invalid Blocks : 0
Heartbeat CPU 3 instructions: 250000003 cycles: 152491880 heartbeat IPC: 1.17487 cumulative IPC: 1.16875 (Simulation time: 44 hr 24 min 39 sec) 
 Total Blocks : 262144 Invalid Blocks : 0
Heartbeat CPU 7 instructions: 250000003 cycles: 152494783 heartbeat IPC: 1.17365 cumulative IPC: 1.16857 (Simulation time: 44 hr 24 min 44 sec) 
 Total Blocks : 262144 Invalid Blocks : 0
Heartbeat CPU 4 instructions: 250000003 cycles: 152495035 heartbeat IPC: 1.17529 cumulative IPC: 1.16867 (Simulation time: 44 hr 24 min 44 sec) 
 Total Blocks : 262144 Invalid Blocks : 0
Heartbeat CPU 5 instructions: 250000003 cycles: 152508040 heartbeat IPC: 1.17546 cumulative IPC: 1.16831 (Simulation time: 44 hr 24 min 50 sec) 
 Total Blocks : 262144 Invalid Blocks : 0
Heartbeat CPU 2 instructions: 250000003 cycles: 152525268 heartbeat IPC: 1.17439 cumulative IPC: 1.16782 (Simulation time: 44 hr 24 min 55 sec) 
 Total Blocks : 262144 Invalid Blocks : 0
Heartbeat CPU 0 instructions: 260000000 cycles: 160888252 heartbeat IPC: 1.17667 cumulative IPC: 1.17239 (Simulation time: 45 hr 46 min 26 sec) 
 Total Blocks : 262144 Invalid Blocks : 0
Heartbeat CPU 1 instructions: 260000000 cycles: 160894626 heartbeat IPC: 1.17699 cumulative IPC: 1.17216 (Simulation time: 45 hr 46 min 30 sec) 
 Total Blocks : 262144 Invalid Blocks : 0
Heartbeat CPU 6 instructions: 260000000 cycles: 160974303 heartbeat IPC: 1.17407 cumulative IPC: 1.17044 (Simulation time: 45 hr 47 min 0 sec) 
 Total Blocks : 262144 Invalid Blocks : 0
Heartbeat CPU 3 instructions: 260000000 cycles: 160987134 heartbeat IPC: 1.17713 cumulative IPC: 1.17014 (Simulation time: 45 hr 47 min 6 sec) 
 Total Blocks : 262144 Invalid Blocks : 0
Heartbeat CPU 4 instructions: 260000000 cycles: 160992310 heartbeat IPC: 1.17685 cumulative IPC: 1.17002 (Simulation time: 45 hr 47 min 10 sec) 
 Total Blocks : 262144 Invalid Blocks : 0
Heartbeat CPU 7 instructions: 260000000 cycles: 161009734 heartbeat IPC: 1.1744 cumulative IPC: 1.16954 (Simulation time: 45 hr 47 min 15 sec) 
 Total Blocks : 262144 Invalid Blocks : 0
Heartbeat CPU 5 instructions: 260000000 cycles: 161012689 heartbeat IPC: 1.17583 cumulative IPC: 1.16956 (Simulation time: 45 hr 47 min 17 sec) 
 Total Blocks : 262144 Invalid Blocks : 0
Heartbeat CPU 2 instructions: 260000000 cycles: 161016965 heartbeat IPC: 1.17762 cumulative IPC: 1.16944 (Simulation time: 45 hr 47 min 23 sec) 
 Total Blocks : 262144 Invalid Blocks : 0
Heartbeat CPU 0 instructions: 270000003 cycles: 169388310 heartbeat IPC: 1.17646 cumulative IPC: 1.17297 (Simulation time: 47 hr 2 min 42 sec) 
 Total Blocks : 262144 Invalid Blocks : 0
Heartbeat CPU 1 instructions: 270000003 cycles: 169394639 heartbeat IPC: 1.17647 cumulative IPC: 1.17277 (Simulation time: 47 hr 2 min 47 sec) 
 Total Blocks : 262144 Invalid Blocks : 0
Heartbeat CPU 6 instructions: 270000003 cycles: 169476861 heartbeat IPC: 1.17612 cumulative IPC: 1.17125 (Simulation time: 47 hr 3 min 20 sec) 
 Total Blocks : 262144 Invalid Blocks : 0
Heartbeat CPU 3 instructions: 270000003 cycles: 169485068 heartbeat IPC: 1.17676 cumulative IPC: 1.17108 (Simulation time: 47 hr 3 min 25 sec) 
 Total Blocks : 262144 Invalid Blocks : 0
Heartbeat CPU 4 instructions: 270000003 cycles: 169489223 heartbeat IPC: 1.1769 cumulative IPC: 1.171 (Simulation time: 47 hr 3 min 26 sec) 
 Total Blocks : 262144 Invalid Blocks : 0
Heartbeat CPU 5 instructions: 270000003 cycles: 169525766 heartbeat IPC: 1.17466 cumulative IPC: 1.17028 (Simulation time: 47 hr 3 min 40 sec) 
 Total Blocks : 262144 Invalid Blocks : 0
Heartbeat CPU 7 instructions: 270000003 cycles: 169540377 heartbeat IPC: 1.17224 cumulative IPC: 1.16993 (Simulation time: 47 hr 3 min 52 sec) 
 Total Blocks : 262144 Invalid Blocks : 0
Heartbeat CPU 2 instructions: 270000003 cycles: 169541649 heartbeat IPC: 1.17306 cumulative IPC: 1.16996 (Simulation time: 47 hr 3 min 53 sec) 
 Total Blocks : 262144 Invalid Blocks : 0
Heartbeat CPU 0 instructions: 280000001 cycles: 177893113 heartbeat IPC: 1.17581 cumulative IPC: 1.17333 (Simulation time: 48 hr 20 min 31 sec) 
 Total Blocks : 262144 Invalid Blocks : 0
Heartbeat CPU 1 instructions: 280000001 cycles: 177901257 heartbeat IPC: 1.17556 cumulative IPC: 1.17312 (Simulation time: 48 hr 20 min 36 sec) 
 Total Blocks : 262144 Invalid Blocks : 0
Heartbeat CPU 6 instructions: 280000001 cycles: 177984228 heartbeat IPC: 1.17545 cumulative IPC: 1.17177 (Simulation time: 48 hr 21 min 30 sec) 
 Total Blocks : 262144 Invalid Blocks : 0
Heartbeat CPU 3 instructions: 280000001 cycles: 177987545 heartbeat IPC: 1.17613 cumulative IPC: 1.17171 (Simulation time: 48 hr 21 min 34 sec) 
 Total Blocks : 262144 Invalid Blocks : 0
Heartbeat CPU 4 instructions: 280000001 cycles: 177996133 heartbeat IPC: 1.17551 cumulative IPC: 1.17156 (Simulation time: 48 hr 21 min 38 sec) 
 Total Blocks : 262144 Invalid Blocks : 0
Heartbeat CPU 5 instructions: 280000001 cycles: 178037452 heartbeat IPC: 1.17486 cumulative IPC: 1.17085 (Simulation time: 48 hr 21 min 58 sec) 
 Total Blocks : 262144 Invalid Blocks : 0
Heartbeat CPU 7 instructions: 280000001 cycles: 178045570 heartbeat IPC: 1.17575 cumulative IPC: 1.17065 (Simulation time: 48 hr 22 min 3 sec) 
 Total Blocks : 262144 Invalid Blocks : 0
Heartbeat CPU 2 instructions: 280000001 cycles: 178059368 heartbeat IPC: 1.17402 cumulative IPC: 1.17047 (Simulation time: 48 hr 22 min 8 sec) 
 Total Blocks : 262144 Invalid Blocks : 0
Heartbeat CPU 0 instructions: 290000001 cycles: 186398309 heartbeat IPC: 1.17575 cumulative IPC: 1.1736 (Simulation time: 49 hr 38 min 49 sec) 
 Total Blocks : 262144 Invalid Blocks : 0
Heartbeat CPU 1 instructions: 290000001 cycles: 186401990 heartbeat IPC: 1.17637 cumulative IPC: 1.17348 (Simulation time: 49 hr 38 min 52 sec) 
 Total Blocks : 262144 Invalid Blocks : 0
Heartbeat CPU 6 instructions: 290000001 cycles: 186496055 heartbeat IPC: 1.17484 cumulative IPC: 1.17211 (Simulation time: 49 hr 39 min 47 sec) 
 Total Blocks : 262144 Invalid Blocks : 0
Heartbeat CPU 3 instructions: 290000001 cycles: 186499125 heartbeat IPC: 1.17487 cumulative IPC: 1.17206 (Simulation time: 49 hr 39 min 49 sec) 
 Total Blocks : 262144 Invalid Blocks : 0
Heartbeat CPU 4 instructions: 290000001 cycles: 186514024 heartbeat IPC: 1.174 cumulative IPC: 1.17183 (Simulation time: 49 hr 39 min 54 sec) 
 Total Blocks : 262144 Invalid Blocks : 0
Heartbeat CPU 5 instructions: 290000001 cycles: 186527203 heartbeat IPC: 1.17789 cumulative IPC: 1.17163 (Simulation time: 49 hr 40 min 0 sec) 
 Total Blocks : 262144 Invalid Blocks : 0
Heartbeat CPU 2 instructions: 290000001 cycles: 186559797 heartbeat IPC: 1.17641 cumulative IPC: 1.17112 (Simulation time: 49 hr 40 min 13 sec) 
 Total Blocks : 262144 Invalid Blocks : 0
Heartbeat CPU 7 instructions: 290000001 cycles: 186599419 heartbeat IPC: 1.16906 cumulative IPC: 1.17048 (Simulation time: 49 hr 40 min 30 sec) 
 Total Blocks : 262144 Invalid Blocks : 0
Heartbeat CPU 0 instructions: 300000001 cycles: 194905018 heartbeat IPC: 1.17554 cumulative IPC: 1.17379 (Simulation time: 50 hr 52 min 0 sec) 
 Total Blocks : 262144 Invalid Blocks : 0
Heartbeat CPU 1 instructions: 300000001 cycles: 194913781 heartbeat IPC: 1.17484 cumulative IPC: 1.17362 (Simulation time: 50 hr 52 min 4 sec) 
 Total Blocks : 262144 Invalid Blocks : 0
Heartbeat CPU 6 instructions: 300000001 cycles: 195008783 heartbeat IPC: 1.17471 cumulative IPC: 1.17237 (Simulation time: 50 hr 52 min 42 sec) 
 Total Blocks : 262144 Invalid Blocks : 0
Heartbeat CPU 3 instructions: 300000001 cycles: 195019141 heartbeat IPC: 1.17371 cumulative IPC: 1.17222 (Simulation time: 50 hr 52 min 46 sec) 
 Total Blocks : 262144 Invalid Blocks : 0
Heartbeat CPU 4 instructions: 300000001 cycles: 195020412 heartbeat IPC: 1.17559 cumulative IPC: 1.17221 (Simulation time: 50 hr 52 min 47 sec) 
 Total Blocks : 262144 Invalid Blocks : 0
Heartbeat CPU 5 instructions: 300000001 cycles: 195049560 heartbeat IPC: 1.17338 cumulative IPC: 1.17181 (Simulation time: 50 hr 52 min 56 sec) 
 Total Blocks : 262144 Invalid Blocks : 0
Heartbeat CPU 2 instructions: 300000001 cycles: 195071651 heartbeat IPC: 1.17483 cumulative IPC: 1.17149 (Simulation time: 50 hr 53 min 4 sec) 
 Total Blocks : 262144 Invalid Blocks : 0
Heartbeat CPU 7 instructions: 300000001 cycles: 195116323 heartbeat IPC: 1.17414 cumulative IPC: 1.17084 (Simulation time: 50 hr 53 min 36 sec) 
 Total Blocks : 262144 Invalid Blocks : 0
Heartbeat CPU 0 instructions: 310000000 cycles: 203420630 heartbeat IPC: 1.17431 cumulative IPC: 1.17384 (Simulation time: 52 hr 5 min 17 sec) 
 Total Blocks : 262144 Invalid Blocks : 0
Heartbeat CPU 1 instructions: 310000000 cycles: 203452126 heartbeat IPC: 1.17119 cumulative IPC: 1.17339 (Simulation time: 52 hr 5 min 42 sec) 
 Total Blocks : 262144 Invalid Blocks : 0
Heartbeat CPU 6 instructions: 310000000 cycles: 203523694 heartbeat IPC: 1.17441 cumulative IPC: 1.17256 (Simulation time: 52 hr 6 min 15 sec) 
 Total Blocks : 262144 Invalid Blocks : 0
Heartbeat CPU 3 instructions: 310000000 cycles: 203537240 heartbeat IPC: 1.17397 cumulative IPC: 1.17238 (Simulation time: 52 hr 6 min 20 sec) 
 Total Blocks : 262144 Invalid Blocks : 0
Heartbeat CPU 4 instructions: 310000000 cycles: 203550999 heartbeat IPC: 1.17225 cumulative IPC: 1.17221 (Simulation time: 52 hr 6 min 23 sec) 
 Total Blocks : 262144 Invalid Blocks : 0
Heartbeat CPU 5 instructions: 310000000 cycles: 203559028 heartbeat IPC: 1.17516 cumulative IPC: 1.17211 (Simulation time: 52 hr 6 min 26 sec) 
 Total Blocks : 262144 Invalid Blocks : 0
Heartbeat CPU 2 instructions: 310000000 cycles: 203596355 heartbeat IPC: 1.17306 cumulative IPC: 1.17164 (Simulation time: 52 hr 6 min 38 sec) 
 Total Blocks : 262144 Invalid Blocks : 0
Heartbeat CPU 7 instructions: 310000000 cycles: 203665378 heartbeat IPC: 1.16972 cumulative IPC: 1.17074 (Simulation time: 52 hr 7 min 11 sec) 
 Total Blocks : 262144 Invalid Blocks : 0
Heartbeat CPU 0 instructions: 320000000 cycles: 211923393 heartbeat IPC: 1.17609 cumulative IPC: 1.17402 (Simulation time: 53 hr 17 min 28 sec) 
 Total Blocks : 262144 Invalid Blocks : 0
Heartbeat CPU 1 instructions: 320000000 cycles: 211961491 heartbeat IPC: 1.17518 cumulative IPC: 1.17354 (Simulation time: 53 hr 17 min 50 sec) 
 Total Blocks : 262144 Invalid Blocks : 0
Heartbeat CPU 6 instructions: 320000000 cycles: 212033248 heartbeat IPC: 1.17515 cumulative IPC: 1.17277 (Simulation time: 53 hr 18 min 23 sec) 
 Total Blocks : 262144 Invalid Blocks : 0
Heartbeat CPU 3 instructions: 320000000 cycles: 212040336 heartbeat IPC: 1.17604 cumulative IPC: 1.17269 (Simulation time: 53 hr 18 min 28 sec) 
 Total Blocks : 262144 Invalid Blocks : 0
Heartbeat CPU 4 instructions: 320000000 cycles: 212052339 heartbeat IPC: 1.17629 cumulative IPC: 1.17255 (Simulation time: 53 hr 18 min 32 sec) 
 Total Blocks : 262144 Invalid Blocks : 0
Heartbeat CPU 5 instructions: 320000000 cycles: 212059233 heartbeat IPC: 1.17644 cumulative IPC: 1.17247 (Simulation time: 53 hr 18 min 35 sec) 
 Total Blocks : 262144 Invalid Blocks : 0
Heartbeat CPU 2 instructions: 320000000 cycles: 212098202 heartbeat IPC: 1.17622 cumulative IPC: 1.17202 (Simulation time: 53 hr 18 min 53 sec) 
 Total Blocks : 262144 Invalid Blocks : 0
Heartbeat CPU 7 instructions: 320000000 cycles: 212183668 heartbeat IPC: 1.17394 cumulative IPC: 1.171 (Simulation time: 53 hr 19 min 46 sec) 
 Total Blocks : 262144 Invalid Blocks : 0
Heartbeat CPU 0 instructions: 330000000 cycles: 220418346 heartbeat IPC: 1.17717 cumulative IPC: 1.17427 (Simulation time: 54 hr 28 min 53 sec) 
 Total Blocks : 262144 Invalid Blocks : 0
Heartbeat CPU 1 instructions: 330000000 cycles: 220467148 heartbeat IPC: 1.17569 cumulative IPC: 1.17371 (Simulation time: 54 hr 29 min 14 sec) 
 Total Blocks : 262144 Invalid Blocks : 0
Heartbeat CPU 6 instructions: 330000000 cycles: 220532493 heartbeat IPC: 1.17658 cumulative IPC: 1.17306 (Simulation time: 54 hr 29 min 40 sec) 
 Total Blocks : 262144 Invalid Blocks : 0
Heartbeat CPU 3 instructions: 330000000 cycles: 220547933 heartbeat IPC: 1.17542 cumulative IPC: 1.1729 (Simulation time: 54 hr 29 min 49 sec) 
 Total Blocks : 262144 Invalid Blocks : 0
Heartbeat CPU 4 instructions: 330000000 cycles: 220554623 heartbeat IPC: 1.17615 cumulative IPC: 1.17283 (Simulation time: 54 hr 29 min 52 sec) 
 Total Blocks : 262144 Invalid Blocks : 0
Heartbeat CPU 5 instructions: 330000000 cycles: 220556253 heartbeat IPC: 1.17688 cumulative IPC: 1.17281 (Simulation time: 54 hr 29 min 53 sec) 
 Total Blocks : 262144 Invalid Blocks : 0
Heartbeat CPU 2 instructions: 330000000 cycles: 220611385 heartbeat IPC: 1.17465 cumulative IPC: 1.17222 (Simulation time: 54 hr 30 min 27 sec) 
 Total Blocks : 262144 Invalid Blocks : 0
Heartbeat CPU 7 instructions: 330000000 cycles: 220716854 heartbeat IPC: 1.1719 cumulative IPC: 1.17107 (Simulation time: 54 hr 31 min 7 sec) 
 Total Blocks : 262144 Invalid Blocks : 0
Heartbeat CPU 0 instructions: 340000003 cycles: 228914011 heartbeat IPC: 1.17707 cumulative IPC: 1.17447 (Simulation time: 55 hr 38 min 4 sec) 
 Total Blocks : 262144 Invalid Blocks : 0
Heartbeat CPU 1 instructions: 340000003 cycles: 228960754 heartbeat IPC: 1.17736 cumulative IPC: 1.17397 (Simulation time: 55 hr 38 min 33 sec) 
 Total Blocks : 262144 Invalid Blocks : 0
Heartbeat CPU 6 instructions: 340000003 cycles: 229031694 heartbeat IPC: 1.17658 cumulative IPC: 1.17331 (Simulation time: 55 hr 39 min 4 sec) 
 Total Blocks : 262144 Invalid Blocks : 0
Heartbeat CPU 3 instructions: 340000003 cycles: 229042222 heartbeat IPC: 1.17726 cumulative IPC: 1.17321 (Simulation time: 55 hr 39 min 8 sec) 
 Total Blocks : 262144 Invalid Blocks : 0
Heartbeat CPU 4 instructions: 340000003 cycles: 229050600 heartbeat IPC: 1.17703 cumulative IPC: 1.17312 (Simulation time: 55 hr 39 min 10 sec) 
 Total Blocks : 262144 Invalid Blocks : 0
Heartbeat CPU 5 instructions: 340000003 cycles: 229056680 heartbeat IPC: 1.17641 cumulative IPC: 1.17306 (Simulation time: 55 hr 39 min 12 sec) 
 Total Blocks : 262144 Invalid Blocks : 0
Heartbeat CPU 2 instructions: 340000003 cycles: 229110532 heartbeat IPC: 1.17659 cumulative IPC: 1.17253 (Simulation time: 55 hr 39 min 33 sec) 
 Total Blocks : 262144 Invalid Blocks : 0
Heartbeat CPU 7 instructions: 340000003 cycles: 229213221 heartbeat IPC: 1.17697 cumulative IPC: 1.17149 (Simulation time: 55 hr 40 min 24 sec) 
 Total Blocks : 262144 Invalid Blocks : 0
Heartbeat CPU 0 instructions: 350000002 cycles: 237408903 heartbeat IPC: 1.17718 cumulative IPC: 1.17465 (Simulation time: 56 hr 44 min 34 sec) 
 Total Blocks : 262144 Invalid Blocks : 0
Heartbeat CPU 1 instructions: 350000002 cycles: 237459343 heartbeat IPC: 1.17667 cumulative IPC: 1.17415 (Simulation time: 56 hr 44 min 54 sec) 
 Total Blocks : 262144 Invalid Blocks : 0
Heartbeat CPU 6 instructions: 350000002 cycles: 237538090 heartbeat IPC: 1.17559 cumulative IPC: 1.17347 (Simulation time: 56 hr 45 min 27 sec) 
 Total Blocks : 262144 Invalid Blocks : 0
Heartbeat CPU 3 instructions: 350000002 cycles: 237550819 heartbeat IPC: 1.17528 cumulative IPC: 1.17334 (Simulation time: 56 hr 45 min 36 sec) 
 Total Blocks : 262144 Invalid Blocks : 0
Heartbeat CPU 4 instructions: 350000002 cycles: 237553404 heartbeat IPC: 1.17608 cumulative IPC: 1.17332 (Simulation time: 56 hr 45 min 38 sec) 
 Total Blocks : 262144 Invalid Blocks : 0
Heartbeat CPU 5 instructions: 350000002 cycles: 237557100 heartbeat IPC: 1.17641 cumulative IPC: 1.17329 (Simulation time: 56 hr 45 min 39 sec) 
 Total Blocks : 262144 Invalid Blocks : 0
Heartbeat CPU 2 instructions: 350000002 cycles: 237616694 heartbeat IPC: 1.17562 cumulative IPC: 1.17273 (Simulation time: 56 hr 46 min 13 sec) 
 Total Blocks : 262144 Invalid Blocks : 0
Heartbeat CPU 7 instructions: 350000002 cycles: 237710691 heartbeat IPC: 1.17682 cumulative IPC: 1.17185 (Simulation time: 56 hr 47 min 6 sec) 
 Total Blocks : 262144 Invalid Blocks : 0
Heartbeat CPU 0 instructions: 360000001 cycles: 245903984 heartbeat IPC: 1.17715 cumulative IPC: 1.1748 (Simulation time: 57 hr 48 min 28 sec) 
 Total Blocks : 262144 Invalid Blocks : 0
Heartbeat CPU 1 instructions: 360000001 cycles: 245976444 heartbeat IPC: 1.17411 cumulative IPC: 1.17414 (Simulation time: 57 hr 48 min 55 sec) 
 Total Blocks : 262144 Invalid Blocks : 0
Heartbeat CPU 6 instructions: 360000001 cycles: 246049197 heartbeat IPC: 1.17494 cumulative IPC: 1.17356 (Simulation time: 57 hr 49 min 23 sec) 
 Total Blocks : 262144 Invalid Blocks : 0
Heartbeat CPU 3 instructions: 360000001 cycles: 246053263 heartbeat IPC: 1.17613 cumulative IPC: 1.17352 (Simulation time: 57 hr 49 min 25 sec) 
 Total Blocks : 262144 Invalid Blocks : 0
Heartbeat CPU 4 instructions: 360000001 cycles: 246070340 heartbeat IPC: 1.17413 cumulative IPC: 1.17337 (Simulation time: 57 hr 49 min 30 sec) 
 Total Blocks : 262144 Invalid Blocks : 0
Heartbeat CPU 5 instructions: 360000001 cycles: 246071924 heartbeat IPC: 1.17442 cumulative IPC: 1.17336 (Simulation time: 57 hr 49 min 31 sec) 
 Total Blocks : 262144 Invalid Blocks : 0
Heartbeat CPU 2 instructions: 360000001 cycles: 246142273 heartbeat IPC: 1.17294 cumulative IPC: 1.17275 (Simulation time: 57 hr 50 min 8 sec) 
 Total Blocks : 262144 Invalid Blocks : 0
Heartbeat CPU 7 instructions: 360000001 cycles: 246228979 heartbeat IPC: 1.17394 cumulative IPC: 1.17198 (Simulation time: 57 hr 50 min 45 sec) 
 Total Blocks : 262144 Invalid Blocks : 0
Heartbeat CPU 0 instructions: 370000001 cycles: 254392568 heartbeat IPC: 1.17805 cumulative IPC: 1.17499 (Simulation time: 58 hr 52 min 38 sec) 
 Total Blocks : 262144 Invalid Blocks : 0
Heartbeat CPU 1 instructions: 370000001 cycles: 254482916 heartbeat IPC: 1.17558 cumulative IPC: 1.17423 (Simulation time: 58 hr 53 min 22 sec) 
 Total Blocks : 262144 Invalid Blocks : 0
Heartbeat CPU 6 instructions: 370000001 cycles: 254542692 heartbeat IPC: 1.17737 cumulative IPC: 1.17378 (Simulation time: 58 hr 53 min 45 sec) 
 Total Blocks : 262144 Invalid Blocks : 0
Heartbeat CPU 3 instructions: 370000001 cycles: 254548725 heartbeat IPC: 1.1771 cumulative IPC: 1.17373 (Simulation time: 58 hr 53 min 49 sec) 
 Total Blocks : 262144 Invalid Blocks : 0
Heartbeat CPU 4 instructions: 370000001 cycles: 254567039 heartbeat IPC: 1.17693 cumulative IPC: 1.17358 (Simulation time: 58 hr 53 min 54 sec) 
 Total Blocks : 262144 Invalid Blocks : 0
Heartbeat CPU 5 instructions: 370000001 cycles: 254574217 heartbeat IPC: 1.17615 cumulative IPC: 1.17352 (Simulation time: 58 hr 53 min 56 sec) 
 Total Blocks : 262144 Invalid Blocks : 0
Heartbeat CPU 2 instructions: 370000001 cycles: 254644170 heartbeat IPC: 1.17621 cumulative IPC: 1.17295 (Simulation time: 58 hr 54 min 23 sec) 
 Total Blocks : 262144 Invalid Blocks : 0
Heartbeat CPU 7 instructions: 370000001 cycles: 254711141 heartbeat IPC: 1.17894 cumulative IPC: 1.17239 (Simulation time: 58 hr 55 min 4 sec) 
 Total Blocks : 262144 Invalid Blocks : 0
Heartbeat CPU 0 instructions: 380000001 cycles: 262890693 heartbeat IPC: 1.17673 cumulative IPC: 1.17509 (Simulation time: 59 hr 53 min 54 sec) 
 Total Blocks : 262144 Invalid Blocks : 0
Heartbeat CPU 1 instructions: 380000001 cycles: 262986794 heartbeat IPC: 1.17593 cumulative IPC: 1.17432 (Simulation time: 59 hr 54 min 33 sec) 
 Total Blocks : 262144 Invalid Blocks : 0
Heartbeat CPU 6 instructions: 380000001 cycles: 263055747 heartbeat IPC: 1.17467 cumulative IPC: 1.17383 (Simulation time: 59 hr 55 min 2 sec) 
 Total Blocks : 262144 Invalid Blocks : 0
Heartbeat CPU 3 instructions: 380000001 cycles: 263067247 heartbeat IPC: 1.17391 cumulative IPC: 1.17374 (Simulation time: 59 hr 55 min 6 sec) 
 Total Blocks : 262144 Invalid Blocks : 0
Heartbeat CPU 4 instructions: 380000001 cycles: 263069193 heartbeat IPC: 1.17617 cumulative IPC: 1.17372 (Simulation time: 59 hr 55 min 6 sec) 
 Total Blocks : 262144 Invalid Blocks : 0
Heartbeat CPU 5 instructions: 380000001 cycles: 263083252 heartbeat IPC: 1.17522 cumulative IPC: 1.17362 (Simulation time: 59 hr 55 min 10 sec) 
 Total Blocks : 262144 Invalid Blocks : 0
Heartbeat CPU 2 instructions: 380000001 cycles: 263155491 heartbeat IPC: 1.17491 cumulative IPC: 1.17306 (Simulation time: 59 hr 55 min 53 sec) 
 Total Blocks : 262144 Invalid Blocks : 0
Heartbeat CPU 7 instructions: 380000001 cycles: 263244756 heartbeat IPC: 1.17184 cumulative IPC: 1.17235 (Simulation time: 59 hr 56 min 30 sec) 
 Total Blocks : 262144 Invalid Blocks : 0
Heartbeat CPU 0 instructions: 390000003 cycles: 271509437 heartbeat IPC: 1.16026 cumulative IPC: 1.1743 (Simulation time: 60 hr 54 min 15 sec) 
 Total Blocks : 262144 Invalid Blocks : 0
Heartbeat CPU 1 instructions: 390000003 cycles: 271615113 heartbeat IPC: 1.15897 cumulative IPC: 1.17351 (Simulation time: 60 hr 54 min 49 sec) 
 Total Blocks : 262144 Invalid Blocks : 0
Heartbeat CPU 6 instructions: 390000003 cycles: 271714264 heartbeat IPC: 1.15493 cumulative IPC: 1.17282 (Simulation time: 60 hr 55 min 22 sec) 
 Total Blocks : 262144 Invalid Blocks : 0
Heartbeat CPU 3 instructions: 390000003 cycles: 271718479 heartbeat IPC: 1.15591 cumulative IPC: 1.17279 (Simulation time: 60 hr 55 min 25 sec) 
 Total Blocks : 262144 Invalid Blocks : 0
Heartbeat CPU 4 instructions: 390000003 cycles: 271737379 heartbeat IPC: 1.15364 cumulative IPC: 1.17265 (Simulation time: 60 hr 55 min 32 sec) 
 Total Blocks : 262144 Invalid Blocks : 0
Heartbeat CPU 5 instructions: 390000003 cycles: 271745526 heartbeat IPC: 1.15443 cumulative IPC: 1.17259 (Simulation time: 60 hr 55 min 47 sec) 
 Total Blocks : 262144 Invalid Blocks : 0
Heartbeat CPU 2 instructions: 390000003 cycles: 271793951 heartbeat IPC: 1.15761 cumulative IPC: 1.17224 (Simulation time: 60 hr 56 min 1 sec) 
 Total Blocks : 262144 Invalid Blocks : 0
Heartbeat CPU 7 instructions: 390000003 cycles: 271880457 heartbeat IPC: 1.15798 cumulative IPC: 1.17159 (Simulation time: 60 hr 56 min 31 sec) 
 Total Blocks : 262144 Invalid Blocks : 0
Heartbeat CPU 0 instructions: 400000000 cycles: 280025227 heartbeat IPC: 1.17429 cumulative IPC: 1.1743 (Simulation time: 61 hr 49 min 58 sec) 
 Total Blocks : 262144 Invalid Blocks : 0
Finished CPU 0 instructions: 200000002 cycles: 170314306 cumulative IPC: 1.1743 (Simulation time: 61 hr 49 min 59 sec) 
Heartbeat CPU 1 instructions: 400000000 cycles: 280125204 heartbeat IPC: 1.17508 cumulative IPC: 1.17358 (Simulation time: 61 hr 50 min 32 sec) 
 Total Blocks : 262144 Invalid Blocks : 0
Finished CPU 1 instructions: 200000002 cycles: 170417933 cumulative IPC: 1.17359 (Simulation time: 61 hr 50 min 34 sec) 
Heartbeat CPU 6 instructions: 400000000 cycles: 280220006 heartbeat IPC: 1.17568 cumulative IPC: 1.17296 (Simulation time: 61 hr 51 min 18 sec) 
 Total Blocks : 262144 Invalid Blocks : 0
Finished CPU 6 instructions: 200000002 cycles: 170508442 cumulative IPC: 1.17296 (Simulation time: 61 hr 51 min 19 sec) 
Heartbeat CPU 3 instructions: 400000000 cycles: 280230700 heartbeat IPC: 1.17478 cumulative IPC: 1.17289 (Simulation time: 61 hr 51 min 22 sec) 
 Total Blocks : 262144 Invalid Blocks : 0
Finished CPU 3 instructions: 200000002 cycles: 170519665 cumulative IPC: 1.17289 (Simulation time: 61 hr 51 min 22 sec) 
Heartbeat CPU 4 instructions: 400000000 cycles: 280239030 heartbeat IPC: 1.17624 cumulative IPC: 1.17283 (Simulation time: 61 hr 51 min 24 sec) 
 Total Blocks : 262144 Invalid Blocks : 0
Finished CPU 4 instructions: 200000000 cycles: 170527909 cumulative IPC: 1.17283 (Simulation time: 61 hr 51 min 24 sec) 
Heartbeat CPU 5 instructions: 400000000 cycles: 280240306 heartbeat IPC: 1.17719 cumulative IPC: 1.17282 (Simulation time: 61 hr 51 min 24 sec) 
 Total Blocks : 262144 Invalid Blocks : 0
Finished CPU 5 instructions: 200000000 cycles: 170529191 cumulative IPC: 1.17282 (Simulation time: 61 hr 51 min 24 sec) 
Heartbeat CPU 2 instructions: 400000000 cycles: 280311811 heartbeat IPC: 1.174 cumulative IPC: 1.17232 (Simulation time: 61 hr 51 min 45 sec) 
 Total Blocks : 262144 Invalid Blocks : 0
Finished CPU 2 instructions: 200000000 cycles: 170601103 cumulative IPC: 1.17233 (Simulation time: 61 hr 51 min 46 sec) 
Heartbeat CPU 7 instructions: 400000000 cycles: 280405014 heartbeat IPC: 1.17308 cumulative IPC: 1.17166 (Simulation time: 61 hr 52 min 16 sec) 
 Total Blocks : 262144 Invalid Blocks : 0
Finished CPU 7 instructions: 200000002 cycles: 170697233 cumulative IPC: 1.17167 (Simulation time: 61 hr 52 min 18 sec) 

CPU 0 Branch Prediction Accuracy: 99.9835% MPKI: 0.00111247 Average ROB Occupancy at Mispredict: 345.448

CPU 1 Branch Prediction Accuracy: 99.9835% MPKI: 0.00111314 Average ROB Occupancy at Mispredict: 345.448

CPU 2 Branch Prediction Accuracy: 99.9835% MPKI: 0.00110936 Average ROB Occupancy at Mispredict: 345.432

CPU 3 Branch Prediction Accuracy: 99.9834% MPKI: 0.00111383 Average ROB Occupancy at Mispredict: 345.448

CPU 4 Branch Prediction Accuracy: 99.9834% MPKI: 0.00111389 Average ROB Occupancy at Mispredict: 345.448

CPU 5 Branch Prediction Accuracy: 99.9834% MPKI: 0.0011139 Average ROB Occupancy at Mispredict: 345.448

CPU 6 Branch Prediction Accuracy: 99.9834% MPKI: 0.00111376 Average ROB Occupancy at Mispredict: 345.448

CPU 7 Branch Prediction Accuracy: 99.9835% MPKI: 0.00110997 Average ROB Occupancy at Mispredict: 345.432

ChampSim completed all CPUs

Total Simulation Statistics (not including warmup)

CPU 0 cumulative IPC: 1.17432 instructions: 200453262 cycles: 170697232
ITLB TOTAL     ACCESS: 39197854  HIT: 39197854  MISS:     0  HIT %:   100  MISS %:     0  AVERAGE MISS PENALTY: 0
ITLB LOAD      ACCESS: 39197854  HIT: 39197854  MISS:     0  HIT %:   100  MISS %:     0  AVERAGE MISS PENALTY: 0
ITLB RFO       ACCESS:     0  HIT:     0  MISS:     0  HIT %:     0  MISS %:     0  AVERAGE MISS PENALTY: 0
ITLB PREFETCH  ACCESS:     0  HIT:     0  MISS:     0  HIT %:     0  MISS %:     0  AVERAGE MISS PENALTY: 0
ITLB WRITEBACK ACCESS:     0  HIT:     0  MISS:     0  HIT %:     0  MISS %:     0  AVERAGE MISS PENALTY: 0

DTLB TOTAL     ACCESS: 53813784  HIT: 46073427  MISS: 7740357  HIT %: 85.6164  MISS %: 14.3836  AVERAGE MISS PENALTY: 9.78864
DTLB LOAD      ACCESS: 45345766  HIT: 38516588  MISS: 6829178  HIT %: 84.9398  MISS %: 15.0602  AVERAGE MISS PENALTY: 9.62392
DTLB RFO       ACCESS: 8468018  HIT: 7556839  MISS: 911179  HIT %: 89.2398  MISS %: 10.7602  AVERAGE MISS PENALTY: 11.0232
DTLB PREFETCH  ACCESS:     0  HIT:     0  MISS:     0  HIT %:     0  MISS %:     0  AVERAGE MISS PENALTY: 0
DTLB WRITEBACK ACCESS:     0  HIT:     0  MISS:     0  HIT %:     0  MISS %:     0  AVERAGE MISS PENALTY: 0

STLB TOTAL     ACCESS: 7740357  HIT: 7731829  MISS:  8528  HIT %: 99.8898  MISS %: 0.110176  AVERAGE MISS PENALTY: 100
STLB LOAD      ACCESS: 6829178  HIT: 6822550  MISS:  6628  HIT %: 99.9029  MISS %: 0.0970541  AVERAGE MISS PENALTY: 100
STLB RFO       ACCESS: 911179  HIT: 909279  MISS:  1900  HIT %: 99.7915  MISS %: 0.208521  AVERAGE MISS PENALTY: 100
STLB PREFETCH  ACCESS:     0  HIT:     0  MISS:     0  HIT %:     0  MISS %:     0  AVERAGE MISS PENALTY: 0
STLB WRITEBACK ACCESS:     0  HIT:     0  MISS:     0  HIT %:     0  MISS %:     0  AVERAGE MISS PENALTY: 0

L1D TOTAL     ACCESS: 115352846  HIT: 91752256  MISS: 23600590  HIT %: 79.5405  MISS %: 20.4595  AVERAGE MISS PENALTY: 1.54111e+06
L1D LOAD      ACCESS: 61878380  HIT: 48048468  MISS: 13829912  HIT %: 77.6498  MISS %: 22.3502  AVERAGE MISS PENALTY: 2.57767e+06
L1D RFO       ACCESS: 16027291  HIT: 14700726  MISS: 1326565  HIT %: 91.7231  MISS %: 8.27691  AVERAGE MISS PENALTY: 544287
L1D PREFETCH  ACCESS: 37447175  HIT: 29003062  MISS: 8444113  HIT %: 77.4506  MISS %: 22.5494  AVERAGE MISS PENALTY: 24.5774
L1D WRITEBACK ACCESS:     0  HIT:     0  MISS:     0  HIT %:     0  MISS %:     0  AVERAGE MISS PENALTY: 0

L1I TOTAL     ACCESS: 45664215  HIT: 40452481  MISS: 5211734  HIT %: 88.5868  MISS %: 11.4132  AVERAGE MISS PENALTY: 11.0955
L1I LOAD      ACCESS: 45664215  HIT: 40452481  MISS: 5211734  HIT %: 88.5868  MISS %: 11.4132  AVERAGE MISS PENALTY: 11.0955
L1I RFO       ACCESS:     0  HIT:     0  MISS:     0  HIT %:     0  MISS %:     0  AVERAGE MISS PENALTY: 0
L1I PREFETCH  ACCESS:     0  HIT:     0  MISS:     0  HIT %:     0  MISS %:     0  AVERAGE MISS PENALTY: 0
L1I WRITEBACK ACCESS:     0  HIT:     0  MISS:     0  HIT %:     0  MISS %:     0  AVERAGE MISS PENALTY: 0

L2C TOTAL     ACCESS: 45291572  HIT: 44266734  MISS: 1024838  HIT %: 97.7372  MISS %: 2.26276  AVERAGE MISS PENALTY: 84904
L2C LOAD      ACCESS: 19002936  HIT: 18972165  MISS: 30771  HIT %: 99.8381  MISS %: 0.161928  AVERAGE MISS PENALTY: 2.82088e+06
L2C RFO       ACCESS: 1320579  HIT: 1201720  MISS: 118859  HIT %: 90.9995  MISS %: 9.00052  AVERAGE MISS PENALTY: 693.594
L2C PREFETCH  ACCESS: 23457557  HIT: 22582654  MISS: 874903  HIT %: 96.2703  MISS %: 3.72973  AVERAGE MISS PENALTY: 147.554
L2C WRITEBACK ACCESS: 1510500  HIT: 1510195  MISS:   305  HIT %: 99.9798  MISS %: 0.020192  AVERAGE MISS PENALTY: 0


LLC0 TOTAL     ACCESS: 146697  HIT: 71991  MISS: 74706  HIT %: 49.0746  MISS %: 50.9254  AVERAGE MISS PENALTY: 288.004
LLC0 LOAD      ACCESS: 16858  HIT:  8776  MISS:  8082  HIT %: 52.0584  MISS %: 47.9416  AVERAGE MISS PENALTY: 207.118
LLC0 RFO       ACCESS: 15193  HIT:   443  MISS: 14750  HIT %: 2.91582  MISS %: 97.0842  AVERAGE MISS PENALTY: 616.363
LLC0 PREFETCH  ACCESS: 99397  HIT: 49399  MISS: 49998  HIT %: 49.6987  MISS %: 50.3013  AVERAGE MISS PENALTY: 215.016
LLC0 WRITEBACK ACCESS: 15249  HIT: 13373  MISS:  1876  HIT %: 87.6976  MISS %: 12.3024  AVERAGE MISS PENALTY: 0

LLC1 TOTAL     ACCESS: 143838  HIT: 69682  MISS: 74156  HIT %: 48.4448  MISS %: 51.5552  AVERAGE MISS PENALTY: 297.721
LLC1 LOAD      ACCESS:  2614  HIT:  1837  MISS:   777  HIT %: 70.2754  MISS %: 29.7246  AVERAGE MISS PENALTY: 241.575
LLC1 RFO       ACCESS: 15001  HIT:   251  MISS: 14750  HIT %: 1.67322  MISS %: 98.3268  AVERAGE MISS PENALTY: 662.032
LLC1 PREFETCH  ACCESS: 111198  HIT: 54388  MISS: 56810  HIT %: 48.911  MISS %: 51.089  AVERAGE MISS PENALTY: 213.433
LLC1 WRITEBACK ACCESS: 15025  HIT: 13206  MISS:  1819  HIT %: 87.8935  MISS %: 12.1065  AVERAGE MISS PENALTY: 0

LLC2 TOTAL     ACCESS: 142143  HIT: 68092  MISS: 74051  HIT %: 47.9039  MISS %: 52.0961  AVERAGE MISS PENALTY: 310.75
LLC2 LOAD      ACCESS:  2108  HIT:  1328  MISS:   780  HIT %: 62.9981  MISS %: 37.0019  AVERAGE MISS PENALTY: 261.819
LLC2 RFO       ACCESS: 14848  HIT:    98  MISS: 14750  HIT %: 0.660022  MISS %: 99.34  AVERAGE MISS PENALTY: 674.769
LLC2 PREFETCH  ACCESS: 110343  HIT: 53575  MISS: 56768  HIT %: 48.5531  MISS %: 51.4469  AVERAGE MISS PENALTY: 226.435
LLC2 WRITEBACK ACCESS: 14844  HIT: 13091  MISS:  1753  HIT %: 88.1905  MISS %: 11.8095  AVERAGE MISS PENALTY: 0

LLC3 TOTAL     ACCESS: 143449  HIT: 69100  MISS: 74349  HIT %: 48.1704  MISS %: 51.8296  AVERAGE MISS PENALTY: 308.213
LLC3 LOAD      ACCESS:  2760  HIT:  1923  MISS:   837  HIT %: 69.6739  MISS %: 30.3261  AVERAGE MISS PENALTY: 256.165
LLC3 RFO       ACCESS: 14774  HIT:    24  MISS: 14750  HIT %: 0.162448  MISS %: 99.8376  AVERAGE MISS PENALTY: 672.26
LLC3 PREFETCH  ACCESS: 111020  HIT: 54093  MISS: 56927  HIT %: 48.7237  MISS %: 51.2763  AVERAGE MISS PENALTY: 224.588
LLC3 WRITEBACK ACCESS: 14895  HIT: 13060  MISS:  1835  HIT %: 87.6804  MISS %: 12.3196  AVERAGE MISS PENALTY: 0

LLC4 TOTAL     ACCESS: 141111  HIT: 67107  MISS: 74004  HIT %: 47.5562  MISS %: 52.4438  AVERAGE MISS PENALTY: 299.333
LLC4 LOAD      ACCESS:  1313  HIT:   548  MISS:   765  HIT %: 41.7365  MISS %: 58.2635  AVERAGE MISS PENALTY: 278.178
LLC4 RFO       ACCESS: 14745  HIT:    20  MISS: 14725  HIT %: 0.135639  MISS %: 99.8644  AVERAGE MISS PENALTY: 666.513
LLC4 PREFETCH  ACCESS: 110293  HIT: 53544  MISS: 56749  HIT %: 48.5471  MISS %: 51.4529  AVERAGE MISS PENALTY: 213.654
LLC4 WRITEBACK ACCESS: 14760  HIT: 12995  MISS:  1765  HIT %: 88.042  MISS %: 11.958  AVERAGE MISS PENALTY: 0

LLC5 TOTAL     ACCESS: 140974  HIT: 66786  MISS: 74188  HIT %: 47.3747  MISS %: 52.6253  AVERAGE MISS PENALTY: 300.269
LLC5 LOAD      ACCESS:  1492  HIT:   802  MISS:   690  HIT %: 53.7534  MISS %: 46.2466  AVERAGE MISS PENALTY: 235.268
LLC5 RFO       ACCESS: 14750  HIT:     0  MISS: 14750  HIT %:     0  MISS %:   100  AVERAGE MISS PENALTY: 665.817
LLC5 PREFETCH  ACCESS: 109955  HIT: 53060  MISS: 56895  HIT %: 48.2561  MISS %: 51.7439  AVERAGE MISS PENALTY: 216.069
LLC5 WRITEBACK ACCESS: 14777  HIT: 12924  MISS:  1853  HIT %: 87.4602  MISS %: 12.5398  AVERAGE MISS PENALTY: 0

LLC6 TOTAL     ACCESS: 141823  HIT: 67598  MISS: 74225  HIT %: 47.6636  MISS %: 52.3364  AVERAGE MISS PENALTY: 309.698
LLC6 LOAD      ACCESS:  1736  HIT:   997  MISS:   739  HIT %: 57.4309  MISS %: 42.5691  AVERAGE MISS PENALTY: 252.928
LLC6 RFO       ACCESS: 14754  HIT:     4  MISS: 14750  HIT %: 0.0271113  MISS %: 99.9729  AVERAGE MISS PENALTY: 674.329
LLC6 PREFETCH  ACCESS: 110552  HIT: 53726  MISS: 56826  HIT %: 48.5979  MISS %: 51.4021  AVERAGE MISS PENALTY: 226.201
LLC6 WRITEBACK ACCESS: 14781  HIT: 12871  MISS:  1910  HIT %: 87.078  MISS %: 12.922  AVERAGE MISS PENALTY: 0

LLC7 TOTAL     ACCESS: 143908  HIT: 69609  MISS: 74299  HIT %: 48.3705  MISS %: 51.6295  AVERAGE MISS PENALTY: 309.835
LLC7 LOAD      ACCESS:  1849  HIT:  1083  MISS:   766  HIT %: 58.5722  MISS %: 41.4278  AVERAGE MISS PENALTY: 229.376
LLC7 RFO       ACCESS: 14789  HIT:    39  MISS: 14750  HIT %: 0.26371  MISS %: 99.7363  AVERAGE MISS PENALTY: 673.651
LLC7 PREFETCH  ACCESS: 112181  HIT: 55233  MISS: 56948  HIT %: 49.2356  MISS %: 50.7644  AVERAGE MISS PENALTY: 226.67
LLC7 WRITEBACK ACCESS: 15089  HIT: 13254  MISS:  1835  HIT %: 87.8388  MISS %: 12.1612  AVERAGE MISS PENALTY: 0

Total Rob stall cycles : 	128553843
Total Load Rob Stall cycles : 	39908369
Average Rob Stall cycles : 	 5
Average Load Rob Stall cycles : 	 12

CPU 1 cumulative IPC: 1.1736 instructions: 200329569 cycles: 170697232
ITLB TOTAL     ACCESS: 39171991  HIT: 39171991  MISS:     0  HIT %:   100  MISS %:     0  AVERAGE MISS PENALTY: 0
ITLB LOAD      ACCESS: 39171991  HIT: 39171991  MISS:     0  HIT %:   100  MISS %:     0  AVERAGE MISS PENALTY: 0
ITLB RFO       ACCESS:     0  HIT:     0  MISS:     0  HIT %:     0  MISS %:     0  AVERAGE MISS PENALTY: 0
ITLB PREFETCH  ACCESS:     0  HIT:     0  MISS:     0  HIT %:     0  MISS %:     0  AVERAGE MISS PENALTY: 0
ITLB WRITEBACK ACCESS:     0  HIT:     0  MISS:     0  HIT %:     0  MISS %:     0  AVERAGE MISS PENALTY: 0

DTLB TOTAL     ACCESS: 53780256  HIT: 46044273  MISS: 7735983  HIT %: 85.6156  MISS %: 14.3844  AVERAGE MISS PENALTY: 9.78931
DTLB LOAD      ACCESS: 45317531  HIT: 38492165  MISS: 6825366  HIT %: 84.9388  MISS %: 15.0612  AVERAGE MISS PENALTY: 9.62398
DTLB RFO       ACCESS: 8462725  HIT: 7552108  MISS: 910617  HIT %: 89.2397  MISS %: 10.7603  AVERAGE MISS PENALTY: 11.0285
DTLB PREFETCH  ACCESS:     0  HIT:     0  MISS:     0  HIT %:     0  MISS %:     0  AVERAGE MISS PENALTY: 0
DTLB WRITEBACK ACCESS:     0  HIT:     0  MISS:     0  HIT %:     0  MISS %:     0  AVERAGE MISS PENALTY: 0

STLB TOTAL     ACCESS: 7735983  HIT: 7727455  MISS:  8528  HIT %: 99.8898  MISS %: 0.110238  AVERAGE MISS PENALTY: 100
STLB LOAD      ACCESS: 6825366  HIT: 6818738  MISS:  6628  HIT %: 99.9029  MISS %: 0.0971083  AVERAGE MISS PENALTY: 100
STLB RFO       ACCESS: 910617  HIT: 908717  MISS:  1900  HIT %: 99.7914  MISS %: 0.20865  AVERAGE MISS PENALTY: 100
STLB PREFETCH  ACCESS:     0  HIT:     0  MISS:     0  HIT %:     0  MISS %:     0  AVERAGE MISS PENALTY: 0
STLB WRITEBACK ACCESS:     0  HIT:     0  MISS:     0  HIT %:     0  MISS %:     0  AVERAGE MISS PENALTY: 0

L1D TOTAL     ACCESS: 115246807  HIT: 91642699  MISS: 23604108  HIT %: 79.5186  MISS %: 20.4814  AVERAGE MISS PENALTY: 1.5418e+06
L1D LOAD      ACCESS: 61839455  HIT: 48016148  MISS: 13823307  HIT %: 77.6465  MISS %: 22.3535  AVERAGE MISS PENALTY: 2.58035e+06
L1D RFO       ACCESS: 16017522  HIT: 14691578  MISS: 1325944  HIT %: 91.7219  MISS %: 8.27808  AVERAGE MISS PENALTY: 545789
L1D PREFETCH  ACCESS: 37389830  HIT: 28934973  MISS: 8454857  HIT %: 77.3873  MISS %: 22.6127  AVERAGE MISS PENALTY: 24.688
L1D WRITEBACK ACCESS:     0  HIT:     0  MISS:     0  HIT %:     0  MISS %:     0  AVERAGE MISS PENALTY: 0

L1I TOTAL     ACCESS: 45633138  HIT: 40424609  MISS: 5208529  HIT %: 88.5861  MISS %: 11.4139  AVERAGE MISS PENALTY: 11.1235
L1I LOAD      ACCESS: 45633138  HIT: 40424609  MISS: 5208529  HIT %: 88.5861  MISS %: 11.4139  AVERAGE MISS PENALTY: 11.1235
L1I RFO       ACCESS:     0  HIT:     0  MISS:     0  HIT %:     0  MISS %:     0  AVERAGE MISS PENALTY: 0
L1I PREFETCH  ACCESS:     0  HIT:     0  MISS:     0  HIT %:     0  MISS %:     0  AVERAGE MISS PENALTY: 0
L1I WRITEBACK ACCESS:     0  HIT:     0  MISS:     0  HIT %:     0  MISS %:     0  AVERAGE MISS PENALTY: 0

L2C TOTAL     ACCESS: 45255286  HIT: 44177869  MISS: 1077417  HIT %: 97.6192  MISS %: 2.38075  AVERAGE MISS PENALTY: 72301.3
L2C LOAD      ACCESS: 18993095  HIT: 18951657  MISS: 41438  HIT %: 99.7818  MISS %: 0.218174  AVERAGE MISS PENALTY: 1.87471e+06
L2C RFO       ACCESS: 1319961  HIT: 1201508  MISS: 118453  HIT %: 91.026  MISS %: 8.97398  AVERAGE MISS PENALTY: 698.355
L2C PREFETCH  ACCESS: 23432098  HIT: 22514817  MISS: 917281  HIT %: 96.0854  MISS %: 3.91463  AVERAGE MISS PENALTY: 143.586
L2C WRITEBACK ACCESS: 1510132  HIT: 1509887  MISS:   245  HIT %: 99.9838  MISS %: 0.0162237  AVERAGE MISS PENALTY: 0


LLC0 TOTAL     ACCESS: 151318  HIT: 76284  MISS: 75034  HIT %: 50.413  MISS %: 49.587  AVERAGE MISS PENALTY: 289.135
LLC0 LOAD      ACCESS: 17155  HIT:  8900  MISS:  8255  HIT %: 51.8799  MISS %: 48.1201  AVERAGE MISS PENALTY: 206.423
LLC0 RFO       ACCESS: 14909  HIT:   184  MISS: 14725  HIT %: 1.23415  MISS %: 98.7658  AVERAGE MISS PENALTY: 614.51
LLC0 PREFETCH  ACCESS: 104286  HIT: 54087  MISS: 50199  HIT %: 51.8641  MISS %: 48.1359  AVERAGE MISS PENALTY: 217.978
LLC0 WRITEBACK ACCESS: 14968  HIT: 13113  MISS:  1855  HIT %: 87.6069  MISS %: 12.3931  AVERAGE MISS PENALTY: 0

LLC1 TOTAL     ACCESS: 147962  HIT: 73744  MISS: 74218  HIT %: 49.8398  MISS %: 50.1602  AVERAGE MISS PENALTY: 300.788
LLC1 LOAD      ACCESS:  2626  HIT:  1876  MISS:   750  HIT %: 71.4395  MISS %: 28.5605  AVERAGE MISS PENALTY: 248.521
LLC1 RFO       ACCESS: 14876  HIT:   151  MISS: 14725  HIT %: 1.01506  MISS %: 98.9849  AVERAGE MISS PENALTY: 661.316
LLC1 PREFETCH  ACCESS: 115518  HIT: 58534  MISS: 56984  HIT %: 50.6709  MISS %: 49.3291  AVERAGE MISS PENALTY: 217.598
LLC1 WRITEBACK ACCESS: 14942  HIT: 13183  MISS:  1759  HIT %: 88.2278  MISS %: 11.7722  AVERAGE MISS PENALTY: 0

LLC2 TOTAL     ACCESS: 148038  HIT: 73882  MISS: 74156  HIT %: 49.9075  MISS %: 50.0925  AVERAGE MISS PENALTY: 312.921
LLC2 LOAD      ACCESS:  3054  HIT:  2264  MISS:   790  HIT %: 74.1323  MISS %: 25.8677  AVERAGE MISS PENALTY: 269.052
LLC2 RFO       ACCESS: 14801  HIT:    76  MISS: 14725  HIT %: 0.513479  MISS %: 99.4865  AVERAGE MISS PENALTY: 679.832
LLC2 PREFETCH  ACCESS: 115332  HIT: 58360  MISS: 56972  HIT %: 50.6017  MISS %: 49.3983  AVERAGE MISS PENALTY: 227.864
LLC2 WRITEBACK ACCESS: 14851  HIT: 13182  MISS:  1669  HIT %: 88.7617  MISS %: 11.2383  AVERAGE MISS PENALTY: 0

LLC3 TOTAL     ACCESS: 149543  HIT: 75387  MISS: 74156  HIT %: 50.4116  MISS %: 49.5884  AVERAGE MISS PENALTY: 309.283
LLC3 LOAD      ACCESS:  4059  HIT:  3211  MISS:   848  HIT %: 79.1082  MISS %: 20.8918  AVERAGE MISS PENALTY: 233.427
LLC3 RFO       ACCESS: 14755  HIT:     5  MISS: 14750  HIT %: 0.0338868  MISS %: 99.9661  AVERAGE MISS PENALTY: 673.199
LLC3 PREFETCH  ACCESS: 115880  HIT: 58868  MISS: 57012  HIT %: 50.8008  MISS %: 49.1992  AVERAGE MISS PENALTY: 224.646
[...]
 TIMELY PREFETCHES:       2455 LATE PREFETCHES: 0 DROPPED PREFETCHES: 0
LLC1 AVERAGE MISS LATENCY: 304.433 cycles
LLC2 TOTAL     ACCESS: 138268  HIT: 64837  MISS: 73431  HIT %: 46.8923  MISS %: 53.1077  AVERAGE MISS PENALTY: 315.746
LLC2 LOAD      ACCESS:  1566  HIT:   794  MISS:   772  HIT %: 50.7024  MISS %: 49.2976  AVERAGE MISS PENALTY: 315.745
LLC2 RFO       ACCESS: 14785  HIT:    85  MISS: 14700  HIT %: 0.574907  MISS %: 99.4251  AVERAGE MISS PENALTY: 689.149
LLC2 PREFETCH  ACCESS: 107111  HIT: 50342  MISS: 56769  HIT %: 46.9998  MISS %: 53.0002  AVERAGE MISS PENALTY: 225.674
LLC2 WRITEBACK ACCESS: 14806  HIT: 13616  MISS:  1190  HIT %: 91.9627  MISS %: 8.03728  AVERAGE MISS PENALTY: 0
LLC2 PREFETCH  REQUESTED:     0  ISSUED:     0  USEFUL:  2362  USELESS: 452122
 USEFUL LOAD PREFETCHES:       2362 PREFETCH ISSUED TO LOWER LEVEL:     779175  ACCURACY: 0.303141
 TIMELY PREFETCHES:       2362 LATE PREFETCHES: 0 DROPPED PREFETCHES: 0
LLC2 AVERAGE MISS LATENCY: 315.746 cycles
LLC3 TOTAL     ACCESS: 139714  HIT: 66120  MISS: 73594  HIT %: 47.3253  MISS %: 52.6747  AVERAGE MISS PENALTY: 314.282
LLC3 LOAD      ACCESS:  2521  HIT:  1691  MISS:   830  HIT %: 67.0766  MISS %: 32.9234  AVERAGE MISS PENALTY: 344.626
LLC3 RFO       ACCESS: 14754  HIT:    29  MISS: 14725  HIT %: 0.196557  MISS %: 99.8034  AVERAGE MISS PENALTY: 686.08
LLC3 PREFETCH  ACCESS: 107585  HIT: 50683  MISS: 56902  HIT %: 47.1097  MISS %: 52.8903  AVERAGE MISS PENALTY: 223.906
LLC3 WRITEBACK ACCESS: 14854  HIT: 13717  MISS:  1137  HIT %: 92.3455  MISS %: 7.6545  AVERAGE MISS PENALTY: 0
LLC3 PREFETCH  REQUESTED:     0  ISSUED:     0  USEFUL:  1940  USELESS: 453885
 USEFUL LOAD PREFETCHES:       1940 PREFETCH ISSUED TO LOWER LEVEL:     634598  ACCURACY: 0.305705
 TIMELY PREFETCHES:       1940 LATE PREFETCHES: 0 DROPPED PREFETCHES: 0
LLC3 AVERAGE MISS LATENCY: 314.282 cycles
LLC4 TOTAL     ACCESS: 138352  HIT: 65019  MISS: 73333  HIT %: 46.9953  MISS %: 53.0047  AVERAGE MISS PENALTY: 309.054
LLC4 LOAD      ACCESS:  1518  HIT:   735  MISS:   783  HIT %: 48.419  MISS %: 51.581  AVERAGE MISS PENALTY: 352.322
LLC4 RFO       ACCESS: 14733  HIT:    33  MISS: 14700  HIT %: 0.223987  MISS %: 99.776  AVERAGE MISS PENALTY: 688.707
LLC4 PREFETCH  ACCESS: 107349  HIT: 50551  MISS: 56798  HIT %: 47.0903  MISS %: 52.9097  AVERAGE MISS PENALTY: 215.923
LLC4 WRITEBACK ACCESS: 14752  HIT: 13700  MISS:  1052  HIT %: 92.8688  MISS %: 7.13124  AVERAGE MISS PENALTY: 0
LLC4 PREFETCH  REQUESTED:     0  ISSUED:     0  USEFUL:  1925  USELESS: 453265
 USEFUL LOAD PREFETCHES:       1925 PREFETCH ISSUED TO LOWER LEVEL:     869519  ACCURACY: 0.221387
 TIMELY PREFETCHES:       1925 LATE PREFETCHES: 0 DROPPED PREFETCHES: 0
LLC4 AVERAGE MISS LATENCY: 309.054 cycles
LLC5 TOTAL     ACCESS: 138379  HIT: 65083  MISS: 73296  HIT %: 47.0324  MISS %: 52.9676  AVERAGE MISS PENALTY: 308.391
LLC5 LOAD      ACCESS:  1653  HIT:   934  MISS:   719  HIT %: 56.5033  MISS %: 43.4967  AVERAGE MISS PENALTY: 256.331
LLC5 RFO       ACCESS: 14736  HIT:    11  MISS: 14725  HIT %: 0.0746471  MISS %: 99.9254  AVERAGE MISS PENALTY: 682.085
LLC5 PREFETCH  ACCESS: 107197  HIT: 50380  MISS: 56817  HIT %: 46.9976  MISS %: 53.0024  AVERAGE MISS PENALTY: 217.819
LLC5 WRITEBACK ACCESS: 14793  HIT: 13758  MISS:  1035  HIT %: 93.0034  MISS %: 6.99655  AVERAGE MISS PENALTY: 0
LLC5 PREFETCH  REQUESTED:     0  ISSUED:     0  USEFUL:  2160  USELESS: 452985
 USEFUL LOAD PREFETCHES:       2160 PREFETCH ISSUED TO LOWER LEVEL:     674696  ACCURACY: 0.320144
 TIMELY PREFETCHES:       2160 LATE PREFETCHES: 0 DROPPED PREFETCHES: 0
LLC5 AVERAGE MISS LATENCY: 308.391 cycles
LLC6 TOTAL     ACCESS: 138929  HIT: 65631  MISS: 73298  HIT %: 47.2407  MISS %: 52.7593  AVERAGE MISS PENALTY: 315.478
LLC6 LOAD      ACCESS:  1711  HIT:   950  MISS:   761  HIT %: 55.5231  MISS %: 44.4769  AVERAGE MISS PENALTY: 379.65
LLC6 RFO       ACCESS: 14778  HIT:    52  MISS: 14726  HIT %: 0.351874  MISS %: 99.6481  AVERAGE MISS PENALTY: 681.777
LLC6 PREFETCH  ACCESS: 107609  HIT: 50800  MISS: 56809  HIT %: 47.2079  MISS %: 52.7921  AVERAGE MISS PENALTY: 225.231
LLC6 WRITEBACK ACCESS: 14831  HIT: 13829  MISS:  1002  HIT %: 93.2439  MISS %: 6.75612  AVERAGE MISS PENALTY: 0
LLC6 PREFETCH  REQUESTED:     0  ISSUED:     0  USEFUL:  2412  USELESS: 452415
 USEFUL LOAD PREFETCHES:       2412 PREFETCH ISSUED TO LOWER LEVEL:     994457  ACCURACY: 0.242544
 TIMELY PREFETCHES:       2412 LATE PREFETCHES: 0 DROPPED PREFETCHES: 0
LLC6 AVERAGE MISS LATENCY: 315.478 cycles
LLC7 TOTAL     ACCESS: 140600  HIT: 67179  MISS: 73421  HIT %: 47.7802  MISS %: 52.2198  AVERAGE MISS PENALTY: 314.008
LLC7 LOAD      ACCESS:  1710  HIT:   956  MISS:   754  HIT %: 55.9064  MISS %: 44.0936  AVERAGE MISS PENALTY: 298.683
LLC7 RFO       ACCESS: 14766  HIT:    41  MISS: 14725  HIT %: 0.277665  MISS %: 99.7223  AVERAGE MISS PENALTY: 683.607
LLC7 PREFETCH  ACCESS: 109162  HIT: 52213  MISS: 56949  HIT %: 47.8307  MISS %: 52.1693  AVERAGE MISS PENALTY: 224.121
LLC7 WRITEBACK ACCESS: 14962  HIT: 13969  MISS:   993  HIT %: 93.3632  MISS %: 6.63681  AVERAGE MISS PENALTY: 0
LLC7 PREFETCH  REQUESTED:     0  ISSUED:     0  USEFUL:  2483  USELESS: 453317
 USEFUL LOAD PREFETCHES:       2483 PREFETCH ISSUED TO LOWER LEVEL:     756708  ACCURACY: 0.328132
 TIMELY PREFETCHES:       2483 LATE PREFETCHES: 0 DROPPED PREFETCHES: 0
LLC7 AVERAGE MISS LATENCY: 314.008 cycles
ROI Average ROB Stall Cycles:	5.84354
ROI Total ROB Stalls Cycles:	128459173
ROI TOTAL ROB counter      :	21983104
ROI Average Load ROB Stall Cycles:	12.3316
ROI Total Load ROB Stalls Cycle  :	40001591
ROI Total Load ROB stalls Counter:	3243822
Major fault: 0 Minor fault: 11255

CPU 7 cumulative IPC: 1.17167 instructions: 200000002 cycles: 170697233
ITLB TOTAL     ACCESS: 39110829  HIT: 39110829  MISS:     0  HIT %:   100  MISS %:     0  AVERAGE MISS PENALTY: 0
ITLB LOAD      ACCESS: 39110829  HIT: 39110829  MISS:     0  HIT %:   100  MISS %:     0  AVERAGE MISS PENALTY: 0
ITLB RFO       ACCESS:     0  HIT:     0  MISS:     0  HIT %:     0  MISS %:     0  AVERAGE MISS PENALTY: 0
ITLB PREFETCH  ACCESS:     0  HIT:     0  MISS:     0  HIT %:     0  MISS %:     0  AVERAGE MISS PENALTY: 0
ITLB WRITEBACK ACCESS:     0  HIT:     0  MISS:     0  HIT %:     0  MISS %:     0  AVERAGE MISS PENALTY: 0
ITLB PREFETCH  REQUESTED:     0  ISSUED:     0  USEFUL:     0  USELESS:     0
 USEFUL LOAD PREFETCHES:          0 PREFETCH ISSUED TO LOWER LEVEL:          0  ACCURACY: -nan
 TIMELY PREFETCHES:          0 LATE PREFETCHES: 0 DROPPED PREFETCHES: 0
ITLB AVERAGE MISS LATENCY: -nan cycles
DTLB TOTAL     ACCESS: 53693468  HIT: 45970551  MISS: 7722917  HIT %: 85.6167  MISS %: 14.3833  AVERAGE MISS PENALTY: 9.7895
DTLB LOAD      ACCESS: 45244472  HIT: 38430663  MISS: 6813809  HIT %: 84.94  MISS %: 15.06  AVERAGE MISS PENALTY: 9.62437
DTLB RFO       ACCESS: 8448996  HIT: 7539888  MISS: 909108  HIT %: 89.24  MISS %: 10.76  AVERAGE MISS PENALTY: 11.0272
DTLB PREFETCH  ACCESS:     0  HIT:     0  MISS:     0  HIT %:     0  MISS %:     0  AVERAGE MISS PENALTY: 0
DTLB WRITEBACK ACCESS:     0  HIT:     0  MISS:     0  HIT %:     0  MISS %:     0  AVERAGE MISS PENALTY: 0
DTLB PREFETCH  REQUESTED:     0  ISSUED:     0  USEFUL:     0  USELESS:     0
 USEFUL LOAD PREFETCHES:          0 PREFETCH ISSUED TO LOWER LEVEL:          0  ACCURACY: -nan
 TIMELY PREFETCHES:          0 LATE PREFETCHES: 0 DROPPED PREFETCHES: 0
DTLB AVERAGE MISS LATENCY: 9.7895 cycles
STLB TOTAL     ACCESS: 7722917  HIT: 7714393  MISS:  8524  HIT %: 99.8896  MISS %: 0.110373  AVERAGE MISS PENALTY: 100
STLB LOAD      ACCESS: 6813809  HIT: 6807185  MISS:  6624  HIT %: 99.9028  MISS %: 0.0972143  AVERAGE MISS PENALTY: 100
STLB RFO       ACCESS: 909108  HIT: 907208  MISS:  1900  HIT %: 99.791  MISS %: 0.208996  AVERAGE MISS PENALTY: 100
STLB PREFETCH  ACCESS:     0  HIT:     0  MISS:     0  HIT %:     0  MISS %:     0  AVERAGE MISS PENALTY: 0
STLB WRITEBACK ACCESS:     0  HIT:     0  MISS:     0  HIT %:     0  MISS %:     0  AVERAGE MISS PENALTY: 0
STLB PREFETCH  REQUESTED:     0  ISSUED:     0  USEFUL:     0  USELESS:     0
 USEFUL LOAD PREFETCHES:          0 PREFETCH ISSUED TO LOWER LEVEL:          0  ACCURACY: -nan
 TIMELY PREFETCHES:          0 LATE PREFETCHES: 0 DROPPED PREFETCHES: 0
STLB AVERAGE MISS LATENCY: 100 cycles
L1D TOTAL     ACCESS: 115070050  HIT: 91504746  MISS: 23565304  HIT %: 79.5209  MISS %: 20.4791  AVERAGE MISS PENALTY: 1.52774e+06
L1D LOAD      ACCESS: 61734625  HIT: 47933747  MISS: 13800878  HIT %: 77.6448  MISS %: 22.3552  AVERAGE MISS PENALTY: 2.55599e+06
L1D RFO       ACCESS: 15989745  HIT: 14665731  MISS: 1324014  HIT %: 91.7196  MISS %: 8.28039  AVERAGE MISS PENALTY: 548731
L1D PREFETCH  ACCESS: 37345680  HIT: 28905268  MISS: 8440412  HIT %: 77.3992  MISS %: 22.6008  AVERAGE MISS PENALTY: 24.6074
L1D WRITEBACK ACCESS:     0  HIT:     0  MISS:     0  HIT %:     0  MISS %:     0  AVERAGE MISS PENALTY: 0
L1D PREFETCH  REQUESTED: 42675625  ISSUED: 39062533  USEFUL: 590807  USELESS: 7849591
 USEFUL LOAD PREFETCHES:     590807 PREFETCH ISSUED TO LOWER LEVEL:   21240359  ACCURACY: 2.78153
 TIMELY PREFETCHES:     590807 LATE PREFETCHES: 588250 DROPPED PREFETCHES: 3613092
L1D AVERAGE MISS LATENCY: 30848.6 cycles
L1I TOTAL     ACCESS: 45559240  HIT: 40359251  MISS: 5199989  HIT %: 88.5863  MISS %: 11.4137  AVERAGE MISS PENALTY: 11.2087
L1I LOAD      ACCESS: 45559240  HIT: 40359251  MISS: 5199989  HIT %: 88.5863  MISS %: 11.4137  AVERAGE MISS PENALTY: 11.2087
L1I RFO       ACCESS:     0  HIT:     0  MISS:     0  HIT %:     0  MISS %:     0  AVERAGE MISS PENALTY: 0
L1I PREFETCH  ACCESS:     0  HIT:     0  MISS:     0  HIT %:     0  MISS %:     0  AVERAGE MISS PENALTY: 0
L1I WRITEBACK ACCESS:     0  HIT:     0  MISS:     0  HIT %:     0  MISS %:     0  AVERAGE MISS PENALTY: 0
L1I PREFETCH  REQUESTED:     0  ISSUED:     0  USEFUL:     0  USELESS:     0
 USEFUL LOAD PREFETCHES:          0 PREFETCH ISSUED TO LOWER LEVEL:          0  ACCURACY: -nan
 TIMELY PREFETCHES:          0 LATE PREFETCHES: 0 DROPPED PREFETCHES: 0
L1I AVERAGE MISS LATENCY: 11.2087 cycles
L2C TOTAL     ACCESS: 45177433  HIT: 44076436  MISS: 1100997  HIT %: 97.5629  MISS %: 2.43705  AVERAGE MISS PENALTY: 525472
L2C LOAD      ACCESS: 18962259  HIT: 18901650  MISS: 60609  HIT %: 99.6804  MISS %: 0.31963  AVERAGE MISS PENALTY: 9.54198e+06
L2C RFO       ACCESS: 1317983  HIT: 1194545  MISS: 123438  HIT %: 90.6343  MISS %: 9.36567  AVERAGE MISS PENALTY: 673.799
L2C PREFETCH  ACCESS: 23389611  HIT: 22473632  MISS: 915979  HIT %: 96.0838  MISS %: 3.91618  AVERAGE MISS PENALTY: 141.732
L2C WRITEBACK ACCESS: 1507580  HIT: 1506609  MISS:   971  HIT %: 99.9356  MISS %: 0.0644079  AVERAGE MISS PENALTY: 0
L2C PREFETCH  REQUESTED: 19747748  ISSUED: 18473284  USEFUL: 887394  USELESS: 28438
 USEFUL LOAD PREFETCHES:     887394 PREFETCH ISSUED TO LOWER LEVEL:     942075  ACCURACY: 94.1957
 TIMELY PREFETCHES:     887394 LATE PREFETCHES: 10508 DROPPED PREFETCHES: 1274464
L2C AVERAGE MISS LATENCY: 198.718 cycles
LLC0 TOTAL     ACCESS: 165768  HIT: 90994  MISS: 74774  HIT %: 54.8924  MISS %: 45.1076  AVERAGE MISS PENALTY: 293.671
LLC0 LOAD      ACCESS: 25222  HIT: 16914  MISS:  8308  HIT %: 67.0605  MISS %: 32.9395  AVERAGE MISS PENALTY: 215.689
LLC0 RFO       ACCESS: 16777  HIT:  2077  MISS: 14700  HIT %: 12.38  MISS %: 87.62  AVERAGE MISS PENALTY: 640.436
LLC0 PREFETCH  ACCESS: 106452  HIT: 56287  MISS: 50165  HIT %: 52.8755  MISS %: 47.1245  AVERAGE MISS PENALTY: 214.345
LLC0 WRITEBACK ACCESS: 17317  HIT: 15716  MISS:  1601  HIT %: 90.7547  MISS %: 9.24525  AVERAGE MISS PENALTY: 0
LLC0 PREFETCH  REQUESTED:     0  ISSUED:     0  USEFUL:  2725  USELESS: 398281
 USEFUL LOAD PREFETCHES:       2725 PREFETCH ISSUED TO LOWER LEVEL:     589684  ACCURACY: 0.462112
 TIMELY PREFETCHES:       2725 LATE PREFETCHES: 0 DROPPED PREFETCHES: 0
LLC0 AVERAGE MISS LATENCY: 293.671 cycles
Deadblocks : 45403 Deadblock percentage : 546.497

LLC1 TOTAL     ACCESS: 160615  HIT: 86673  MISS: 73942  HIT %: 53.9632  MISS %: 46.0368  AVERAGE MISS PENALTY: 305.003
LLC1 LOAD      ACCESS:  9459  HIT:  8579  MISS:   880  HIT %: 90.6967  MISS %: 9.30331  AVERAGE MISS PENALTY: 283.565
LLC1 RFO       ACCESS: 16352  HIT:  1651  MISS: 14701  HIT %: 10.0966  MISS %: 89.9034  AVERAGE MISS PENALTY: 686.104
LLC1 PREFETCH  ACCESS: 118286  HIT: 61445  MISS: 56841  HIT %: 51.9461  MISS %: 48.0539  AVERAGE MISS PENALTY: 214.925
LLC1 WRITEBACK ACCESS: 16518  HIT: 14998  MISS:  1520  HIT %: 90.7979  MISS %: 9.20208  AVERAGE MISS PENALTY: 0
LLC1 PREFETCH  REQUESTED:     0  ISSUED:     0  USEFUL:  2455  USELESS: 452070
 USEFUL LOAD PREFETCHES:       2455 PREFETCH ISSUED TO LOWER LEVEL:     588107  ACCURACY: 0.417441
 TIMELY PREFETCHES:       2455 LATE PREFETCHES: 0 DROPPED PREFETCHES: 0
LLC1 AVERAGE MISS LATENCY: 305.003 cycles
LLC2 TOTAL     ACCESS: 150300  HIT: 76575  MISS: 73725  HIT %: 50.9481  MISS %: 49.0519  AVERAGE MISS PENALTY: 307.314
LLC2 LOAD      ACCESS:  4996  HIT:  4122  MISS:   874  HIT %: 82.506  MISS %: 17.494  AVERAGE MISS PENALTY: 281.919
LLC2 RFO       ACCESS: 15151  HIT:   451  MISS: 14700  HIT %: 2.9767  MISS %: 97.0233  AVERAGE MISS PENALTY: 667.738
LLC2 PREFETCH  ACCESS: 114952  HIT: 58263  MISS: 56689  HIT %: 50.6846  MISS %: 49.3154  AVERAGE MISS PENALTY: 222.17
LLC2 WRITEBACK ACCESS: 15201  HIT: 13739  MISS:  1462  HIT %: 90.3822  MISS %: 9.61779  AVERAGE MISS PENALTY: 0
LLC2 PREFETCH  REQUESTED:     0  ISSUED:     0  USEFUL:  2362  USELESS: 452122
 USEFUL LOAD PREFETCHES:       2362 PREFETCH ISSUED TO LOWER LEVEL:     779175  ACCURACY: 0.303141
 TIMELY PREFETCHES:       2362 LATE PREFETCHES: 0 DROPPED PREFETCHES: 0
LLC2 AVERAGE MISS LATENCY: 307.314 cycles
LLC3 TOTAL     ACCESS: 148413  HIT: 74402  MISS: 74011  HIT %: 50.1317  MISS %: 49.8683  AVERAGE MISS PENALTY: 307.119
LLC3 LOAD      ACCESS:  3912  HIT:  2978  MISS:   934  HIT %: 76.1247  MISS %: 23.8753  AVERAGE MISS PENALTY: 322.409
LLC3 RFO       ACCESS: 14812  HIT:    87  MISS: 14725  HIT %: 0.587362  MISS %: 99.4126  AVERAGE MISS PENALTY: 672.832
LLC3 PREFETCH  ACCESS: 114723  HIT: 57811  MISS: 56912  HIT %: 50.3918  MISS %: 49.6082  AVERAGE MISS PENALTY: 220.017
LLC3 WRITEBACK ACCESS: 14966  HIT: 13526  MISS:  1440  HIT %: 90.3782  MISS %: 9.62181  AVERAGE MISS PENALTY: 0
LLC3 PREFETCH  REQUESTED:     0  ISSUED:     0  USEFUL:  1940  USELESS: 453885
 USEFUL LOAD PREFETCHES:       1940 PREFETCH ISSUED TO LOWER LEVEL:     634598  ACCURACY: 0.305705
 TIMELY PREFETCHES:       1940 LATE PREFETCHES: 0 DROPPED PREFETCHES: 0
LLC3 AVERAGE MISS LATENCY: 307.119 cycles
LLC4 TOTAL     ACCESS: 147150  HIT: 73305  MISS: 73845  HIT %: 49.8165  MISS %: 50.1835  AVERAGE MISS PENALTY: 307.236
LLC4 LOAD      ACCESS:  2536  HIT:  1690  MISS:   846  HIT %: 66.6404  MISS %: 33.3596  AVERAGE MISS PENALTY: 329.975
LLC4 RFO       ACCESS: 14863  HIT:   163  MISS: 14700  HIT %: 1.09668  MISS %: 98.9033  AVERAGE MISS PENALTY: 684.65
LLC4 PREFETCH  ACCESS: 114855  HIT: 57979  MISS: 56876  HIT %: 50.4802  MISS %: 49.5198  AVERAGE MISS PENALTY: 217.039
LLC4 WRITEBACK ACCESS: 14896  HIT: 13473  MISS:  1423  HIT %: 90.4471  MISS %: 9.5529  AVERAGE MISS PENALTY: 0
LLC4 PREFETCH  REQUESTED:     0  ISSUED:     0  USEFUL:  1925  USELESS: 453265
 USEFUL LOAD PREFETCHES:       1925 PREFETCH ISSUED TO LOWER LEVEL:     869519  ACCURACY: 0.221387
 TIMELY PREFETCHES:       1925 LATE PREFETCHES: 0 DROPPED PREFETCHES: 0
LLC4 AVERAGE MISS LATENCY: 307.236 cycles
LLC5 TOTAL     ACCESS: 148634  HIT: 74688  MISS: 73946  HIT %: 50.2496  MISS %: 49.7504  AVERAGE MISS PENALTY: 305.196
LLC5 LOAD      ACCESS:  3930  HIT:  3097  MISS:   833  HIT %: 78.8041  MISS %: 21.1959  AVERAGE MISS PENALTY: 275.684
LLC5 RFO       ACCESS: 14868  HIT:   143  MISS: 14725  HIT %: 0.961797  MISS %: 99.0382  AVERAGE MISS PENALTY: 679.186
LLC5 PREFETCH  ACCESS: 114676  HIT: 57700  MISS: 56976  HIT %: 50.3157  MISS %: 49.6843  AVERAGE MISS PENALTY: 216.536
LLC5 WRITEBACK ACCESS: 15160  HIT: 13748  MISS:  1412  HIT %: 90.686  MISS %: 9.31398  AVERAGE MISS PENALTY: 0
LLC5 PREFETCH  REQUESTED:     0  ISSUED:     0  USEFUL:  2160  USELESS: 452985
 USEFUL LOAD PREFETCHES:       2160 PREFETCH ISSUED TO LOWER LEVEL:     674696  ACCURACY: 0.320144
 TIMELY PREFETCHES:       2160 LATE PREFETCHES: 0 DROPPED PREFETCHES: 0
LLC5 AVERAGE MISS LATENCY: 305.196 cycles
LLC6 TOTAL     ACCESS: 151640  HIT: 77854  MISS: 73786  HIT %: 51.3413  MISS %: 48.6587  AVERAGE MISS PENALTY: 307.424
LLC6 LOAD      ACCESS:  5538  HIT:  4657  MISS:   881  HIT %: 84.0917  MISS %: 15.9083  AVERAGE MISS PENALTY: 329.077
LLC6 RFO       ACCESS: 15150  HIT:   425  MISS: 14725  HIT %: 2.80528  MISS %: 97.1947  AVERAGE MISS PENALTY: 666.13
LLC6 PREFETCH  ACCESS: 115379  HIT: 58561  MISS: 56818  HIT %: 50.7553  MISS %: 49.2447  AVERAGE MISS PENALTY: 221.496
LLC6 WRITEBACK ACCESS: 15573  HIT: 14211  MISS:  1362  HIT %: 91.2541  MISS %: 8.74591  AVERAGE MISS PENALTY: 0
LLC6 PREFETCH  REQUESTED:     0  ISSUED:     0  USEFUL:  2412  USELESS: 452415
 USEFUL LOAD PREFETCHES:       2412 PREFETCH ISSUED TO LOWER LEVEL:     994457  ACCURACY: 0.242544
 TIMELY PREFETCHES:       2412 LATE PREFETCHES: 0 DROPPED PREFETCHES: 0
LLC6 AVERAGE MISS LATENCY: 307.424 cycles
LLC7 TOTAL     ACCESS: 152665  HIT: 78764  MISS: 73901  HIT %: 51.5927  MISS %: 48.4073  AVERAGE MISS PENALTY: 307.253
LLC7 LOAD      ACCESS:  4711  HIT:  3815  MISS:   896  HIT %: 80.9807  MISS %: 19.0193  AVERAGE MISS PENALTY: 275.5
LLC7 RFO       ACCESS: 15209  HIT:   484  MISS: 14725  HIT %: 3.18233  MISS %: 96.8177  AVERAGE MISS PENALTY: 662.086
LLC7 PREFETCH  ACCESS: 116939  HIT: 59982  MISS: 56957  HIT %: 51.2934  MISS %: 48.7066  AVERAGE MISS PENALTY: 223.155
LLC7 WRITEBACK ACCESS: 15806  HIT: 14483  MISS:  1323  HIT %: 91.6298  MISS %: 8.37024  AVERAGE MISS PENALTY: 0
LLC7 PREFETCH  REQUESTED:     0  ISSUED:     0  USEFUL:  2483  USELESS: 453317
 USEFUL LOAD PREFETCHES:       2483 PREFETCH ISSUED TO LOWER LEVEL:     756708  ACCURACY: 0.328132
 TIMELY PREFETCHES:       2483 LATE PREFETCHES: 0 DROPPED PREFETCHES: 0
LLC7 AVERAGE MISS LATENCY: 307.253 cycles
ROI Average ROB Stall Cycles:	5.85192
ROI Total ROB Stalls Cycles:	128651131
ROI TOTAL ROB counter      :	21984419
ROI Average Load ROB Stall Cycles:	12.3611
ROI Total Load ROB Stalls Cycle  :	40115197
ROI Total Load ROB stalls Counter:	3245268
Major fault: 0 Minor fault: 11251








Interconnect Stats 
LINK 0 BW : 0LINK 1 BW : 0LINK 2 BW : 0LINK 3 BW : 0LINK 4 BW : 0LINK 5 BW : 0LINK 6 BW : 0LINK 7 BW : 0
DRAM Statistics
 CHANNEL 0
 RQ ROW_BUFFER_HIT: 1054597  ROW_BUFFER_MISS: 1267079
 DBUS_CONGESTED: 988454
 WQ ROW_BUFFER_HIT: 109496  ROW_BUFFER_MISS: 362911  FULL:     0

 CHANNEL 1
 RQ ROW_BUFFER_HIT: 1046757  ROW_BUFFER_MISS: 1272867
 DBUS_CONGESTED: 988454
 WQ ROW_BUFFER_HIT: 108706  ROW_BUFFER_MISS: 364535  FULL:     0

 AVG_CONGESTED_CYCLE: 5
DRAM PAGES: 2097152
Allocated PAGES: 90032
L2C destructor called
L1D destructor called
L1I destructor called
STLB destructor called
DTLB destructor called
ITLB destructor called
L2C destructor called
L1D destructor called
L1I destructor called
STLB destructor called
DTLB destructor called
ITLB destructor called
L2C destructor called
L1D destructor called
L1I destructor called
STLB destructor called
DTLB destructor called
ITLB destructor called
L2C destructor called
L1D destructor called
L1I destructor called
STLB destructor called
DTLB destructor called
ITLB destructor called
L2C destructor called
L1D destructor called
L1I destructor called
STLB destructor called
DTLB destructor called
ITLB destructor called
L2C destructor called
L1D destructor called
L1I destructor called
STLB destructor called
DTLB destructor called
ITLB destructor called
L2C destructor called
L1D destructor called
L1I destructor called
STLB destructor called
DTLB destructor called
ITLB destructor called
L2C destructor called
L1D destructor called
L1I destructor called
STLB destructor called
DTLB destructor called
ITLB destructor called
