
*** ChampSim Multicore Out-of-Order Simulator ***

Warmup Instructions: 200000000
Simulation Instructions: 200000000
Number of CPUs: 8
threads:1

L1I Configuration:
L1I_SET:64
L1I_WAY:8
L1I_RQ_SIZE:64
L1I_WQ_SIZE:64
L1I_PQ_SIZE:8
L1I_MSHR_SIZE:8

L1D Configuration:
L1D_SET:64
L1D_WAY:12
L1D_RQ_SIZE:64
L1D_WQ_SIZE:64
L1D_PQ_SIZE:8
L1D_MSHR_SIZE:16

L2C Configuration:
L2C_SET:1024
L2C_WAY:8
L2C_RQ_SIZE:32
L2C_WQ_SIZE:32
L2C_PQ_SIZE:16
L2C_MSHR_SIZE:32

LLC Configuration:
LLC_SET:2048
LLC_WAY:16
LLC SLICES:8
LLC_RQ_SIZE:64
LLC_WQ_SIZE:64
LLC_PQ_SIZE:32
LLC_MSHR_SIZE:64

Interconnect OFF
Attacker deprioritize is: OFF
Off-chip DRAM Size: 8192 MB Channels: 2 Width: 64-bit Data Rate: 3200 MT/s
PAGE SIZE in KB: 4.000000 
PAGE SIZE in MB: 0.003906 
PAGE offset in bits: 12 
CEASER-S_LLC:0
MIRAGE : 0
CEASER_LATENCY:3
REMAP : OFF
Partitions : 1
Multi-Step : OFF
BFS : OFF

CPU 0 runs /home/anubhav/spec_2017/619.lbm_s-3766B.champsimtrace.xz
CPU 1 runs /home/anubhav/spec_2017/619.lbm_s-3766B.champsimtrace.xz
CPU 2 runs /home/anubhav/spec_2017/619.lbm_s-3766B.champsimtrace.xz
CPU 3 runs /home/anubhav/spec_2017/619.lbm_s-3766B.champsimtrace.xz
CPU 4 runs /home/anubhav/spec_2017/619.lbm_s-3766B.champsimtrace.xz
CPU 5 runs /home/anubhav/spec_2017/619.lbm_s-3766B.champsimtrace.xz
CPU 6 runs /home/anubhav/spec_2017/619.lbm_s-3766B.champsimtrace.xz
CPU 7 runs /home/anubhav/spec_2017/619.lbm_s-3766B.champsimtrace.xz
CPU 0 Bimodal branch predictor
Initialize Hawkeye state
Initialize Hawkeye state
Initialize Hawkeye state
Initialize Hawkeye state
Initialize Hawkeye state
Initialize Hawkeye state
Initialize Hawkeye state
Initialize Hawkeye state
CPU 1 Bimodal branch predictor
Initialize Hawkeye state
Initialize Hawkeye state
Initialize Hawkeye state
Initialize Hawkeye state
Initialize Hawkeye state
Initialize Hawkeye state
Initialize Hawkeye state
Initialize Hawkeye state
CPU 2 Bimodal branch predictor
Initialize Hawkeye state
Initialize Hawkeye state
Initialize Hawkeye state
Initialize Hawkeye state
Initialize Hawkeye state
Initialize Hawkeye state
Initialize Hawkeye state
Initialize Hawkeye state
CPU 3 Bimodal branch predictor
Initialize Hawkeye state
Initialize Hawkeye state
Initialize Hawkeye state
Initialize Hawkeye state
Initialize Hawkeye state
Initialize Hawkeye state
Initialize Hawkeye state
Initialize Hawkeye state
CPU 4 Bimodal branch predictor
Initialize Hawkeye state
Initialize Hawkeye state
Initialize Hawkeye state
Initialize Hawkeye state
Initialize Hawkeye state
Initialize Hawkeye state
Initialize Hawkeye state
Initialize Hawkeye state
CPU 5 Bimodal branch predictor
Initialize Hawkeye state
Initialize Hawkeye state
Initialize Hawkeye state
Initialize Hawkeye state
Initialize Hawkeye state
Initialize Hawkeye state
Initialize Hawkeye state
Initialize Hawkeye state
CPU 6 Bimodal branch predictor
Initialize Hawkeye state
Initialize Hawkeye state
Initialize Hawkeye state
Initialize Hawkeye state
Initialize Hawkeye state
Initialize Hawkeye state
Initialize Hawkeye state
Initialize Hawkeye state
CPU 7 Bimodal branch predictor
Initialize Hawkeye state
Initialize Hawkeye state
Initialize Hawkeye state
Initialize Hawkeye state
Initialize Hawkeye state
Initialize Hawkeye state
Initialize Hawkeye state
Initialize Hawkeye state
Heartbeat CPU 6 instructions: 10000001 cycles: 3512357 heartbeat IPC: 2.84709 cumulative IPC: 2.84709 (Simulation time: 4 hr 54 min 2 sec) 
 Total Blocks : 262144 Invalid Blocks : 353
Heartbeat CPU 7 instructions: 10000001 cycles: 3512358 heartbeat IPC: 2.84709 cumulative IPC: 2.84709 (Simulation time: 4 hr 54 min 8 sec) 
 Total Blocks : 262144 Invalid Blocks : 353
Heartbeat CPU 1 instructions: 10000001 cycles: 3512374 heartbeat IPC: 2.84708 cumulative IPC: 2.84708 (Simulation time: 4 hr 54 min 8 sec) 
 Total Blocks : 262144 Invalid Blocks : 353
Heartbeat CPU 0 instructions: 10000001 cycles: 3512394 heartbeat IPC: 2.84706 cumulative IPC: 2.84706 (Simulation time: 4 hr 54 min 9 sec) 
 Total Blocks : 262144 Invalid Blocks : 353
Heartbeat CPU 5 instructions: 10000001 cycles: 3512414 heartbeat IPC: 2.84705 cumulative IPC: 2.84705 (Simulation time: 4 hr 54 min 9 sec) 
 Total Blocks : 262144 Invalid Blocks : 353
Heartbeat CPU 4 instructions: 10000001 cycles: 3512432 heartbeat IPC: 2.84703 cumulative IPC: 2.84703 (Simulation time: 4 hr 54 min 9 sec) 
 Total Blocks : 262144 Invalid Blocks : 353
Heartbeat CPU 3 instructions: 10000001 cycles: 3512451 heartbeat IPC: 2.84702 cumulative IPC: 2.84702 (Simulation time: 4 hr 54 min 9 sec) 
 Total Blocks : 262144 Invalid Blocks : 353
Heartbeat CPU 2 instructions: 10000001 cycles: 3512461 heartbeat IPC: 2.84701 cumulative IPC: 2.84701 (Simulation time: 4 hr 54 min 9 sec) 
 Total Blocks : 262144 Invalid Blocks : 353
Heartbeat CPU 6 instructions: 20000003 cycles: 7031699 heartbeat IPC: 2.84144 cumulative IPC: 2.84426 (Simulation time: 9 hr 57 min 30 sec) 
 Total Blocks : 262144 Invalid Blocks : 1
Heartbeat CPU 7 instructions: 20000003 cycles: 7031706 heartbeat IPC: 2.84144 cumulative IPC: 2.84426 (Simulation time: 9 hr 57 min 35 sec) 
 Total Blocks : 262144 Invalid Blocks : 1
Heartbeat CPU 5 instructions: 20000003 cycles: 7031757 heartbeat IPC: 2.84144 cumulative IPC: 2.84424 (Simulation time: 9 hr 57 min 35 sec) 
 Total Blocks : 262144 Invalid Blocks : 1
Heartbeat CPU 1 instructions: 20000003 cycles: 7031759 heartbeat IPC: 2.84141 cumulative IPC: 2.84424 (Simulation time: 9 hr 57 min 35 sec) 
 Total Blocks : 262144 Invalid Blocks : 1
Heartbeat CPU 4 instructions: 20000003 cycles: 7031839 heartbeat IPC: 2.84139 cumulative IPC: 2.84421 (Simulation time: 9 hr 57 min 35 sec) 
 Total Blocks : 262144 Invalid Blocks : 1
Heartbeat CPU 0 instructions: 20000003 cycles: 7031877 heartbeat IPC: 2.84133 cumulative IPC: 2.84419 (Simulation time: 9 hr 57 min 35 sec) 
 Total Blocks : 262144 Invalid Blocks : 1
Heartbeat CPU 2 instructions: 20000003 cycles: 7031887 heartbeat IPC: 2.84137 cumulative IPC: 2.84419 (Simulation time: 9 hr 57 min 35 sec) 
 Total Blocks : 262144 Invalid Blocks : 1
Heartbeat CPU 3 instructions: 20000003 cycles: 7031898 heartbeat IPC: 2.84136 cumulative IPC: 2.84418 (Simulation time: 9 hr 57 min 35 sec) 
 Total Blocks : 262144 Invalid Blocks : 1
Heartbeat CPU 6 instructions: 30000000 cycles: 10544127 heartbeat IPC: 2.84703 cumulative IPC: 2.84519 (Simulation time: 14 hr 24 min 43 sec) 
 Total Blocks : 262144 Invalid Blocks : 0
Heartbeat CPU 7 instructions: 30000000 cycles: 10544164 heartbeat IPC: 2.84701 cumulative IPC: 2.84518 (Simulation time: 14 hr 24 min 52 sec) 
 Total Blocks : 262144 Invalid Blocks : 0
Heartbeat CPU 5 instructions: 30000000 cycles: 10544242 heartbeat IPC: 2.84699 cumulative IPC: 2.84515 (Simulation time: 14 hr 24 min 53 sec) 
 Total Blocks : 262144 Invalid Blocks : 0
Heartbeat CPU 1 instructions: 30000000 cycles: 10544264 heartbeat IPC: 2.84697 cumulative IPC: 2.84515 (Simulation time: 14 hr 24 min 53 sec) 
 Total Blocks : 262144 Invalid Blocks : 0
Heartbeat CPU 4 instructions: 30000000 cycles: 10544305 heartbeat IPC: 2.847 cumulative IPC: 2.84514 (Simulation time: 14 hr 24 min 53 sec) 
 Total Blocks : 262144 Invalid Blocks : 0
Heartbeat CPU 0 instructions: 30000000 cycles: 10544351 heartbeat IPC: 2.847 cumulative IPC: 2.84513 (Simulation time: 14 hr 24 min 53 sec) 
 Total Blocks : 262144 Invalid Blocks : 0
Heartbeat CPU 2 instructions: 30000000 cycles: 10544353 heartbeat IPC: 2.847 cumulative IPC: 2.84512 (Simulation time: 14 hr 24 min 53 sec) 
 Total Blocks : 262144 Invalid Blocks : 0
Heartbeat CPU 3 instructions: 30000000 cycles: 10544376 heartbeat IPC: 2.84699 cumulative IPC: 2.84512 (Simulation time: 14 hr 24 min 54 sec) 
 Total Blocks : 262144 Invalid Blocks : 0
Heartbeat CPU 7 instructions: 40000001 cycles: 14063282 heartbeat IPC: 2.84162 cumulative IPC: 2.84429 (Simulation time: 18 hr 3 min 52 sec) 
 Total Blocks : 262144 Invalid Blocks : 0
Heartbeat CPU 6 instructions: 40000001 cycles: 14063288 heartbeat IPC: 2.84159 cumulative IPC: 2.84429 (Simulation time: 18 hr 3 min 55 sec) 
 Total Blocks : 262144 Invalid Blocks : 0
Heartbeat CPU 5 instructions: 40000001 cycles: 14063347 heartbeat IPC: 2.84163 cumulative IPC: 2.84427 (Simulation time: 18 hr 3 min 55 sec) 
 Total Blocks : 262144 Invalid Blocks : 0
Heartbeat CPU 4 instructions: 40000001 cycles: 14063353 heartbeat IPC: 2.84168 cumulative IPC: 2.84427 (Simulation time: 18 hr 3 min 55 sec) 
 Total Blocks : 262144 Invalid Blocks : 0
Heartbeat CPU 2 instructions: 40000001 cycles: 14063361 heartbeat IPC: 2.84171 cumulative IPC: 2.84427 (Simulation time: 18 hr 3 min 55 sec) 
 Total Blocks : 262144 Invalid Blocks : 0
Heartbeat CPU 1 instructions: 40000001 cycles: 14063363 heartbeat IPC: 2.84164 cumulative IPC: 2.84427 (Simulation time: 18 hr 3 min 55 sec) 
 Total Blocks : 262144 Invalid Blocks : 0
Heartbeat CPU 0 instructions: 40000001 cycles: 14063495 heartbeat IPC: 2.8416 cumulative IPC: 2.84424 (Simulation time: 18 hr 3 min 55 sec) 
 Total Blocks : 262144 Invalid Blocks : 0
Heartbeat CPU 3 instructions: 40000001 cycles: 14063498 heartbeat IPC: 2.84162 cumulative IPC: 2.84424 (Simulation time: 18 hr 3 min 55 sec) 
 Total Blocks : 262144 Invalid Blocks : 0
Heartbeat CPU 7 instructions: 50000001 cycles: 17582334 heartbeat IPC: 2.84167 cumulative IPC: 2.84376 (Simulation time: 21 hr 20 min 27 sec) 
 Total Blocks : 262144 Invalid Blocks : 0
Heartbeat CPU 5 instructions: 50000001 cycles: 17582401 heartbeat IPC: 2.84167 cumulative IPC: 2.84375 (Simulation time: 21 hr 20 min 29 sec) 
 Total Blocks : 262144 Invalid Blocks : 0
Heartbeat CPU 6 instructions: 50000001 cycles: 17582427 heartbeat IPC: 2.8416 cumulative IPC: 2.84375 (Simulation time: 21 hr 20 min 29 sec) 
 Total Blocks : 262144 Invalid Blocks : 0
Heartbeat CPU 4 instructions: 50000001 cycles: 17582474 heartbeat IPC: 2.84162 cumulative IPC: 2.84374 (Simulation time: 21 hr 20 min 29 sec) 
 Total Blocks : 262144 Invalid Blocks : 0
Heartbeat CPU 1 instructions: 50000001 cycles: 17582487 heartbeat IPC: 2.84162 cumulative IPC: 2.84374 (Simulation time: 21 hr 20 min 29 sec) 
 Total Blocks : 262144 Invalid Blocks : 0
Heartbeat CPU 2 instructions: 50000001 cycles: 17582539 heartbeat IPC: 2.84157 cumulative IPC: 2.84373 (Simulation time: 21 hr 20 min 29 sec) 
 Total Blocks : 262144 Invalid Blocks : 0
Heartbeat CPU 0 instructions: 50000001 cycles: 17582631 heartbeat IPC: 2.84161 cumulative IPC: 2.84372 (Simulation time: 21 hr 20 min 29 sec) 
 Total Blocks : 262144 Invalid Blocks : 0
Heartbeat CPU 3 instructions: 50000001 cycles: 17582635 heartbeat IPC: 2.84161 cumulative IPC: 2.84371 (Simulation time: 21 hr 20 min 29 sec) 
 Total Blocks : 262144 Invalid Blocks : 0
Heartbeat CPU 7 instructions: 60000001 cycles: 21094650 heartbeat IPC: 2.84712 cumulative IPC: 2.84432 (Simulation time: 24 hr 26 min 35 sec) 
 Total Blocks : 262144 Invalid Blocks : 0
Heartbeat CPU 5 instructions: 60000001 cycles: 21094791 heartbeat IPC: 2.84706 cumulative IPC: 2.8443 (Simulation time: 24 hr 26 min 38 sec) 
 Total Blocks : 262144 Invalid Blocks : 0
Heartbeat CPU 6 instructions: 60000001 cycles: 21094798 heartbeat IPC: 2.84708 cumulative IPC: 2.8443 (Simulation time: 24 hr 26 min 38 sec) 
 Total Blocks : 262144 Invalid Blocks : 0
Heartbeat CPU 4 instructions: 60000001 cycles: 21094845 heartbeat IPC: 2.84708 cumulative IPC: 2.8443 (Simulation time: 24 hr 26 min 38 sec) 
 Total Blocks : 262144 Invalid Blocks : 0
Heartbeat CPU 1 instructions: 60000001 cycles: 21094884 heartbeat IPC: 2.84706 cumulative IPC: 2.84429 (Simulation time: 24 hr 26 min 39 sec) 
 Total Blocks : 262144 Invalid Blocks : 0
Heartbeat CPU 3 instructions: 60000001 cycles: 21094992 heartbeat IPC: 2.84709 cumulative IPC: 2.84428 (Simulation time: 24 hr 26 min 39 sec) 
 Total Blocks : 262144 Invalid Blocks : 0
Heartbeat CPU 2 instructions: 60000001 cycles: 21095002 heartbeat IPC: 2.84701 cumulative IPC: 2.84428 (Simulation time: 24 hr 26 min 39 sec) 
 Total Blocks : 262144 Invalid Blocks : 0
Heartbeat CPU 0 instructions: 60000001 cycles: 21095026 heartbeat IPC: 2.84706 cumulative IPC: 2.84427 (Simulation time: 24 hr 26 min 39 sec) 
 Total Blocks : 262144 Invalid Blocks : 0
Heartbeat CPU 7 instructions: 70000003 cycles: 24613567 heartbeat IPC: 2.84178 cumulative IPC: 2.84396 (Simulation time: 27 hr 20 min 57 sec) 
 Total Blocks : 262144 Invalid Blocks : 0
Heartbeat CPU 5 instructions: 70000003 cycles: 24613747 heartbeat IPC: 2.84175 cumulative IPC: 2.84394 (Simulation time: 27 hr 20 min 59 sec) 
 Total Blocks : 262144 Invalid Blocks : 0
Heartbeat CPU 6 instructions: 70000003 cycles: 24613772 heartbeat IPC: 2.84174 cumulative IPC: 2.84394 (Simulation time: 27 hr 20 min 59 sec) 
 Total Blocks : 262144 Invalid Blocks : 0
Heartbeat CPU 4 instructions: 70000003 cycles: 24613777 heartbeat IPC: 2.84177 cumulative IPC: 2.84394 (Simulation time: 27 hr 20 min 59 sec) 
 Total Blocks : 262144 Invalid Blocks : 0
Heartbeat CPU 1 instructions: 70000003 cycles: 24613896 heartbeat IPC: 2.84171 cumulative IPC: 2.84392 (Simulation time: 27 hr 20 min 59 sec) 
 Total Blocks : 262144 Invalid Blocks : 0
Heartbeat CPU 3 instructions: 70000003 cycles: 24613916 heartbeat IPC: 2.84178 cumulative IPC: 2.84392 (Simulation time: 27 hr 21 min 0 sec) 
 Total Blocks : 262144 Invalid Blocks : 0
Heartbeat CPU 2 instructions: 70000003 cycles: 24613923 heartbeat IPC: 2.84178 cumulative IPC: 2.84392 (Simulation time: 27 hr 21 min 0 sec) 
 Total Blocks : 262144 Invalid Blocks : 0
Heartbeat CPU 0 instructions: 70000003 cycles: 24613953 heartbeat IPC: 2.84178 cumulative IPC: 2.84392 (Simulation time: 27 hr 21 min 0 sec) 
 Total Blocks : 262144 Invalid Blocks : 0
Heartbeat CPU 7 instructions: 80000001 cycles: 28126149 heartbeat IPC: 2.84691 cumulative IPC: 2.84433 (Simulation time: 30 hr 10 min 3 sec) 
 Total Blocks : 262144 Invalid Blocks : 0
Heartbeat CPU 5 instructions: 80000001 cycles: 28126303 heartbeat IPC: 2.84693 cumulative IPC: 2.84431 (Simulation time: 30 hr 10 min 4 sec) 
 Total Blocks : 262144 Invalid Blocks : 0
Heartbeat CPU 6 instructions: 80000001 cycles: 28126322 heartbeat IPC: 2.84693 cumulative IPC: 2.84431 (Simulation time: 30 hr 10 min 4 sec) 
 Total Blocks : 262144 Invalid Blocks : 0
Heartbeat CPU 4 instructions: 80000001 cycles: 28126437 heartbeat IPC: 2.84684 cumulative IPC: 2.8443 (Simulation time: 30 hr 10 min 5 sec) 
 Total Blocks : 262144 Invalid Blocks : 0
Heartbeat CPU 3 instructions: 80000001 cycles: 28126510 heartbeat IPC: 2.8469 cumulative IPC: 2.84429 (Simulation time: 30 hr 10 min 5 sec) 
 Total Blocks : 262144 Invalid Blocks : 0
Heartbeat CPU 1 instructions: 80000001 cycles: 28126512 heartbeat IPC: 2.84688 cumulative IPC: 2.84429 (Simulation time: 30 hr 10 min 5 sec) 
 Total Blocks : 262144 Invalid Blocks : 0
Heartbeat CPU 2 instructions: 80000001 cycles: 28126527 heartbeat IPC: 2.84689 cumulative IPC: 2.84429 (Simulation time: 30 hr 10 min 5 sec) 
 Total Blocks : 262144 Invalid Blocks : 0
Heartbeat CPU 0 instructions: 80000001 cycles: 28126575 heartbeat IPC: 2.84688 cumulative IPC: 2.84429 (Simulation time: 30 hr 10 min 5 sec) 
 Total Blocks : 262144 Invalid Blocks : 0
Heartbeat CPU 7 instructions: 90000002 cycles: 31644893 heartbeat IPC: 2.84192 cumulative IPC: 2.84406 (Simulation time: 33 hr 0 min 45 sec) 
 Total Blocks : 262144 Invalid Blocks : 0
Heartbeat CPU 6 instructions: 90000002 cycles: 31645100 heartbeat IPC: 2.8419 cumulative IPC: 2.84404 (Simulation time: 33 hr 0 min 47 sec) 
 Total Blocks : 262144 Invalid Blocks : 0
Heartbeat CPU 5 instructions: 90000002 cycles: 31645123 heartbeat IPC: 2.84186 cumulative IPC: 2.84404 (Simulation time: 33 hr 0 min 47 sec) 
 Total Blocks : 262144 Invalid Blocks : 0
Heartbeat CPU 4 instructions: 90000002 cycles: 31645216 heartbeat IPC: 2.8419 cumulative IPC: 2.84403 (Simulation time: 33 hr 0 min 47 sec) 
 Total Blocks : 262144 Invalid Blocks : 0
Heartbeat CPU 3 instructions: 90000002 cycles: 31645299 heartbeat IPC: 2.84189 cumulative IPC: 2.84402 (Simulation time: 33 hr 0 min 48 sec) 
 Total Blocks : 262144 Invalid Blocks : 0
Heartbeat CPU 2 instructions: 90000002 cycles: 31645340 heartbeat IPC: 2.84187 cumulative IPC: 2.84402 (Simulation time: 33 hr 0 min 48 sec) 
 Total Blocks : 262144 Invalid Blocks : 0
Heartbeat CPU 1 instructions: 90000002 cycles: 31645387 heartbeat IPC: 2.84182 cumulative IPC: 2.84402 (Simulation time: 33 hr 0 min 48 sec) 
 Total Blocks : 262144 Invalid Blocks : 0
Heartbeat CPU 0 instructions: 90000002 cycles: 31645405 heartbeat IPC: 2.84185 cumulative IPC: 2.84401 (Simulation time: 33 hr 0 min 48 sec) 
 Total Blocks : 262144 Invalid Blocks : 0
Heartbeat CPU 7 instructions: 100000000 cycles: 35157340 heartbeat IPC: 2.84702 cumulative IPC: 2.84436 (Simulation time: 35 hr 45 min 4 sec) 
 Total Blocks : 262144 Invalid Blocks : 0
Heartbeat CPU 6 instructions: 100000000 cycles: 35157614 heartbeat IPC: 2.84696 cumulative IPC: 2.84433 (Simulation time: 35 hr 45 min 11 sec) 
 Total Blocks : 262144 Invalid Blocks : 0
Heartbeat CPU 5 instructions: 100000000 cycles: 35157667 heartbeat IPC: 2.84694 cumulative IPC: 2.84433 (Simulation time: 35 hr 45 min 11 sec) 
 Total Blocks : 262144 Invalid Blocks : 0
Heartbeat CPU 4 instructions: 100000000 cycles: 35157743 heartbeat IPC: 2.84695 cumulative IPC: 2.84432 (Simulation time: 35 hr 45 min 11 sec) 
 Total Blocks : 262144 Invalid Blocks : 0
Heartbeat CPU 3 instructions: 100000000 cycles: 35157822 heartbeat IPC: 2.84696 cumulative IPC: 2.84432 (Simulation time: 35 hr 45 min 11 sec) 
 Total Blocks : 262144 Invalid Blocks : 0
Heartbeat CPU 2 instructions: 100000000 cycles: 35157862 heartbeat IPC: 2.84696 cumulative IPC: 2.84431 (Simulation time: 35 hr 45 min 11 sec) 
 Total Blocks : 262144 Invalid Blocks : 0
Heartbeat CPU 1 instructions: 100000000 cycles: 35157885 heartbeat IPC: 2.84698 cumulative IPC: 2.84431 (Simulation time: 35 hr 45 min 11 sec) 
 Total Blocks : 262144 Invalid Blocks : 0
Heartbeat CPU 0 instructions: 100000000 cycles: 35157952 heartbeat IPC: 2.84694 cumulative IPC: 2.84431 (Simulation time: 35 hr 45 min 11 sec) 
 Total Blocks : 262144 Invalid Blocks : 0
Heartbeat CPU 7 instructions: 110000000 cycles: 38698936 heartbeat IPC: 2.82359 cumulative IPC: 2.84246 (Simulation time: 38 hr 31 min 7 sec) 
 Total Blocks : 262144 Invalid Blocks : 0
Heartbeat CPU 6 instructions: 110000000 cycles: 38699156 heartbeat IPC: 2.82363 cumulative IPC: 2.84244 (Simulation time: 38 hr 31 min 9 sec) 
 Total Blocks : 262144 Invalid Blocks : 0
Heartbeat CPU 5 instructions: 110000000 cycles: 38699179 heartbeat IPC: 2.82365 cumulative IPC: 2.84244 (Simulation time: 38 hr 31 min 9 sec) 
 Total Blocks : 262144 Invalid Blocks : 0
Heartbeat CPU 4 instructions: 110000000 cycles: 38699300 heartbeat IPC: 2.82362 cumulative IPC: 2.84243 (Simulation time: 38 hr 31 min 9 sec) 
 Total Blocks : 262144 Invalid Blocks : 0
Heartbeat CPU 2 instructions: 110000000 cycles: 38699455 heartbeat IPC: 2.82359 cumulative IPC: 2.84242 (Simulation time: 38 hr 31 min 9 sec) 
 Total Blocks : 262144 Invalid Blocks : 0
Heartbeat CPU 0 instructions: 110000000 cycles: 38699516 heartbeat IPC: 2.82361 cumulative IPC: 2.84241 (Simulation time: 38 hr 31 min 9 sec) 
 Total Blocks : 262144 Invalid Blocks : 0
Heartbeat CPU 3 instructions: 110000000 cycles: 38699527 heartbeat IPC: 2.8235 cumulative IPC: 2.84241 (Simulation time: 38 hr 31 min 9 sec) 
 Total Blocks : 262144 Invalid Blocks : 0
Heartbeat CPU 1 instructions: 110000000 cycles: 38699542 heartbeat IPC: 2.82354 cumulative IPC: 2.84241 (Simulation time: 38 hr 31 min 9 sec) 
 Total Blocks : 262144 Invalid Blocks : 0
Heartbeat CPU 7 instructions: 120000002 cycles: 42255435 heartbeat IPC: 2.81175 cumulative IPC: 2.83987 (Simulation time: 41 hr 13 min 53 sec) 
 Total Blocks : 262144 Invalid Blocks : 0
Heartbeat CPU 6 instructions: 120000002 cycles: 42255591 heartbeat IPC: 2.81181 cumulative IPC: 2.83986 (Simulation time: 41 hr 13 min 55 sec) 
 Total Blocks : 262144 Invalid Blocks : 0
Heartbeat CPU 5 instructions: 120000002 cycles: 42255600 heartbeat IPC: 2.81182 cumulative IPC: 2.83986 (Simulation time: 41 hr 13 min 55 sec) 
 Total Blocks : 262144 Invalid Blocks : 0
Heartbeat CPU 4 instructions: 120000002 cycles: 42255814 heartbeat IPC: 2.81174 cumulative IPC: 2.83985 (Simulation time: 41 hr 13 min 55 sec) 
 Total Blocks : 262144 Invalid Blocks : 0
Heartbeat CPU 3 instructions: 120000002 cycles: 42255954 heartbeat IPC: 2.81181 cumulative IPC: 2.83984 (Simulation time: 41 hr 13 min 55 sec) 
 Total Blocks : 262144 Invalid Blocks : 0
Heartbeat CPU 2 instructions: 120000002 cycles: 42255958 heartbeat IPC: 2.81175 cumulative IPC: 2.83984 (Simulation time: 41 hr 13 min 55 sec) 
 Total Blocks : 262144 Invalid Blocks : 0
Heartbeat CPU 0 instructions: 120000002 cycles: 42255966 heartbeat IPC: 2.81179 cumulative IPC: 2.83984 (Simulation time: 41 hr 13 min 55 sec) 
 Total Blocks : 262144 Invalid Blocks : 0
Heartbeat CPU 1 instructions: 120000002 cycles: 42256048 heartbeat IPC: 2.81175 cumulative IPC: 2.83983 (Simulation time: 41 hr 13 min 55 sec) 
 Total Blocks : 262144 Invalid Blocks : 0
Heartbeat CPU 6 instructions: 130000001 cycles: 45906302 heartbeat IPC: 2.73919 cumulative IPC: 2.83186 (Simulation time: 44 hr 16 min 38 sec) 
 Total Blocks : 262144 Invalid Blocks : 0
Heartbeat CPU 7 instructions: 130000001 cycles: 45906328 heartbeat IPC: 2.73906 cumulative IPC: 2.83185 (Simulation time: 44 hr 16 min 40 sec) 
 Total Blocks : 262144 Invalid Blocks : 0
Heartbeat CPU 5 instructions: 130000001 cycles: 45906531 heartbeat IPC: 2.73903 cumulative IPC: 2.83184 (Simulation time: 44 hr 16 min 40 sec) 
 Total Blocks : 262144 Invalid Blocks : 0
Heartbeat CPU 4 instructions: 130000001 cycles: 45906648 heartbeat IPC: 2.7391 cumulative IPC: 2.83183 (Simulation time: 44 hr 16 min 41 sec) 
 Total Blocks : 262144 Invalid Blocks : 0
Heartbeat CPU 2 instructions: 130000001 cycles: 45906707 heartbeat IPC: 2.73916 cumulative IPC: 2.83183 (Simulation time: 44 hr 16 min 41 sec) 
 Total Blocks : 262144 Invalid Blocks : 0
Heartbeat CPU 0 instructions: 130000001 cycles: 45906745 heartbeat IPC: 2.73914 cumulative IPC: 2.83183 (Simulation time: 44 hr 16 min 41 sec) 
 Total Blocks : 262144 Invalid Blocks : 0
Heartbeat CPU 3 instructions: 130000001 cycles: 45906775 heartbeat IPC: 2.73911 cumulative IPC: 2.83183 (Simulation time: 44 hr 16 min 41 sec) 
 Total Blocks : 262144 Invalid Blocks : 0
Heartbeat CPU 1 instructions: 130000001 cycles: 45906940 heartbeat IPC: 2.73906 cumulative IPC: 2.83182 (Simulation time: 44 hr 16 min 42 sec) 
 Total Blocks : 262144 Invalid Blocks : 0
Heartbeat CPU 7 instructions: 140000001 cycles: 49618213 heartbeat IPC: 2.69405 cumulative IPC: 2.82154 (Simulation time: 47 hr 26 min 53 sec) 
 Total Blocks : 262144 Invalid Blocks : 0
Heartbeat CPU 6 instructions: 140000001 cycles: 49618342 heartbeat IPC: 2.69394 cumulative IPC: 2.82154 (Simulation time: 47 hr 26 min 59 sec) 
 Total Blocks : 262144 Invalid Blocks : 0
Heartbeat CPU 5 instructions: 140000001 cycles: 49618573 heartbeat IPC: 2.69393 cumulative IPC: 2.82152 (Simulation time: 47 hr 27 min 0 sec) 
 Total Blocks : 262144 Invalid Blocks : 0
Heartbeat CPU 3 instructions: 140000001 cycles: 49618683 heartbeat IPC: 2.69403 cumulative IPC: 2.82152 (Simulation time: 47 hr 27 min 0 sec) 
 Total Blocks : 262144 Invalid Blocks : 0
Heartbeat CPU 4 instructions: 140000001 cycles: 49618844 heartbeat IPC: 2.69382 cumulative IPC: 2.82151 (Simulation time: 47 hr 27 min 0 sec) 
 Total Blocks : 262144 Invalid Blocks : 0
Heartbeat CPU 2 instructions: 140000001 cycles: 49618866 heartbeat IPC: 2.69385 cumulative IPC: 2.82151 (Simulation time: 47 hr 27 min 0 sec) 
 Total Blocks : 262144 Invalid Blocks : 0
Heartbeat CPU 0 instructions: 140000001 cycles: 49618896 heartbeat IPC: 2.69386 cumulative IPC: 2.82151 (Simulation time: 47 hr 27 min 0 sec) 
 Total Blocks : 262144 Invalid Blocks : 0
Heartbeat CPU 1 instructions: 140000001 cycles: 49619062 heartbeat IPC: 2.69388 cumulative IPC: 2.8215 (Simulation time: 47 hr 27 min 0 sec) 
 Total Blocks : 262144 Invalid Blocks : 0
Heartbeat CPU 7 instructions: 150000001 cycles: 53425901 heartbeat IPC: 2.62627 cumulative IPC: 2.80763 (Simulation time: 51 hr 3 min 50 sec) 
 Total Blocks : 262144 Invalid Blocks : 0
Heartbeat CPU 6 instructions: 150000001 cycles: 53425952 heartbeat IPC: 2.62632 cumulative IPC: 2.80762 (Simulation time: 51 hr 3 min 50 sec) 
 Total Blocks : 262144 Invalid Blocks : 0
Heartbeat CPU 5 instructions: 150000001 cycles: 53425958 heartbeat IPC: 2.62647 cumulative IPC: 2.80762 (Simulation time: 51 hr 3 min 51 sec) 
 Total Blocks : 262144 Invalid Blocks : 0
Heartbeat CPU 4 instructions: 150000001 cycles: 53426272 heartbeat IPC: 2.62645 cumulative IPC: 2.80761 (Simulation time: 51 hr 3 min 52 sec) 
 Total Blocks : 262144 Invalid Blocks : 0
Heartbeat CPU 3 instructions: 150000001 cycles: 53426381 heartbeat IPC: 2.62626 cumulative IPC: 2.8076 (Simulation time: 51 hr 3 min 52 sec) 
 Total Blocks : 262144 Invalid Blocks : 0
Heartbeat CPU 2 instructions: 150000001 cycles: 53426498 heartbeat IPC: 2.6263 cumulative IPC: 2.8076 (Simulation time: 51 hr 3 min 53 sec) 
 Total Blocks : 262144 Invalid Blocks : 0
Heartbeat CPU 1 instructions: 150000001 cycles: 53426563 heartbeat IPC: 2.62639 cumulative IPC: 2.80759 (Simulation time: 51 hr 3 min 53 sec) 
 Total Blocks : 262144 Invalid Blocks : 0
Heartbeat CPU 0 instructions: 150000001 cycles: 53426886 heartbeat IPC: 2.62606 cumulative IPC: 2.80758 (Simulation time: 51 hr 3 min 54 sec) 
 Total Blocks : 262144 Invalid Blocks : 0
Heartbeat CPU 7 instructions: 160000000 cycles: 57401729 heartbeat IPC: 2.5152 cumulative IPC: 2.78737 (Simulation time: 55 hr 22 min 56 sec) 
 Total Blocks : 262144 Invalid Blocks : 0
Heartbeat CPU 6 instructions: 160000000 cycles: 57402176 heartbeat IPC: 2.51495 cumulative IPC: 2.78735 (Simulation time: 55 hr 23 min 0 sec) 
 Total Blocks : 262144 Invalid Blocks : 0
Heartbeat CPU 5 instructions: 160000000 cycles: 57402358 heartbeat IPC: 2.51484 cumulative IPC: 2.78734 (Simulation time: 55 hr 23 min 1 sec) 
 Total Blocks : 262144 Invalid Blocks : 0
Heartbeat CPU 4 instructions: 160000000 cycles: 57402398 heartbeat IPC: 2.51501 cumulative IPC: 2.78734 (Simulation time: 55 hr 23 min 1 sec) 
 Total Blocks : 262144 Invalid Blocks : 0
Heartbeat CPU 3 instructions: 160000000 cycles: 57402490 heartbeat IPC: 2.51502 cumulative IPC: 2.78734 (Simulation time: 55 hr 23 min 1 sec) 
 Total Blocks : 262144 Invalid Blocks : 0
Heartbeat CPU 2 instructions: 160000000 cycles: 57402521 heartbeat IPC: 2.51508 cumulative IPC: 2.78733 (Simulation time: 55 hr 23 min 2 sec) 
 Total Blocks : 262144 Invalid Blocks : 0
Heartbeat CPU 1 instructions: 160000000 cycles: 57402561 heartbeat IPC: 2.51509 cumulative IPC: 2.78733 (Simulation time: 55 hr 23 min 2 sec) 
 Total Blocks : 262144 Invalid Blocks : 0
Heartbeat CPU 0 instructions: 160000000 cycles: 57403195 heartbeat IPC: 2.51489 cumulative IPC: 2.7873 (Simulation time: 55 hr 23 min 4 sec) 
 Total Blocks : 262144 Invalid Blocks : 0
Heartbeat CPU 7 instructions: 170000002 cycles: 61562758 heartbeat IPC: 2.40325 cumulative IPC: 2.76141 (Simulation time: 60 hr 21 min 0 sec) 
 Total Blocks : 262144 Invalid Blocks : 0
Heartbeat CPU 3 instructions: 170000002 cycles: 61563531 heartbeat IPC: 2.40325 cumulative IPC: 2.76138 (Simulation time: 60 hr 21 min 3 sec) 
 Total Blocks : 262144 Invalid Blocks : 0
Heartbeat CPU 6 instructions: 170000002 cycles: 61563548 heartbeat IPC: 2.40305 cumulative IPC: 2.76137 (Simulation time: 60 hr 21 min 3 sec) 
 Total Blocks : 262144 Invalid Blocks : 0
Heartbeat CPU 5 instructions: 170000002 cycles: 61563603 heartbeat IPC: 2.40313 cumulative IPC: 2.76137 (Simulation time: 60 hr 21 min 4 sec) 
 Total Blocks : 262144 Invalid Blocks : 0
Heartbeat CPU 4 instructions: 170000002 cycles: 61563605 heartbeat IPC: 2.40315 cumulative IPC: 2.76137 (Simulation time: 60 hr 21 min 4 sec) 
 Total Blocks : 262144 Invalid Blocks : 0
Heartbeat CPU 0 instructions: 170000002 cycles: 61563736 heartbeat IPC: 2.40353 cumulative IPC: 2.76137 (Simulation time: 60 hr 21 min 4 sec) 
 Total Blocks : 262144 Invalid Blocks : 0
Heartbeat CPU 2 instructions: 170000002 cycles: 61563781 heartbeat IPC: 2.40312 cumulative IPC: 2.76136 (Simulation time: 60 hr 21 min 4 sec) 
 Total Blocks : 262144 Invalid Blocks : 0
Heartbeat CPU 1 instructions: 170000002 cycles: 61563793 heartbeat IPC: 2.40313 cumulative IPC: 2.76136 (Simulation time: 60 hr 21 min 4 sec) 
 Total Blocks : 262144 Invalid Blocks : 0
Heartbeat CPU 7 instructions: 180000002 cycles: 65806670 heartbeat IPC: 2.35632 cumulative IPC: 2.73529 (Simulation time: 65 hr 31 min 40 sec) 
 Total Blocks : 262144 Invalid Blocks : 0
Heartbeat CPU 4 instructions: 180000002 cycles: 65806814 heartbeat IPC: 2.35671 cumulative IPC: 2.73528 (Simulation time: 65 hr 31 min 41 sec) 
 Total Blocks : 262144 Invalid Blocks : 0
Heartbeat CPU 0 instructions: 180000002 cycles: 65806895 heartbeat IPC: 2.35673 cumulative IPC: 2.73528 (Simulation time: 65 hr 31 min 41 sec) 
 Total Blocks : 262144 Invalid Blocks : 0
Heartbeat CPU 3 instructions: 180000002 cycles: 65806901 heartbeat IPC: 2.35662 cumulative IPC: 2.73528 (Simulation time: 65 hr 31 min 41 sec) 
 Total Blocks : 262144 Invalid Blocks : 0
Heartbeat CPU 6 instructions: 180000002 cycles: 65806968 heartbeat IPC: 2.35659 cumulative IPC: 2.73527 (Simulation time: 65 hr 31 min 42 sec) 
 Total Blocks : 262144 Invalid Blocks : 0
Heartbeat CPU 5 instructions: 180000002 cycles: 65807288 heartbeat IPC: 2.35644 cumulative IPC: 2.73526 (Simulation time: 65 hr 31 min 43 sec) 
 Total Blocks : 262144 Invalid Blocks : 0
Heartbeat CPU 1 instructions: 180000002 cycles: 65807298 heartbeat IPC: 2.35654 cumulative IPC: 2.73526 (Simulation time: 65 hr 31 min 43 sec) 
 Total Blocks : 262144 Invalid Blocks : 0
Heartbeat CPU 2 instructions: 180000002 cycles: 65807352 heartbeat IPC: 2.35651 cumulative IPC: 2.73526 (Simulation time: 65 hr 31 min 43 sec) 
 Total Blocks : 262144 Invalid Blocks : 0
Heartbeat CPU 7 instructions: 190000002 cycles: 70109233 heartbeat IPC: 2.3242 cumulative IPC: 2.71006 (Simulation time: 71 hr 1 min 3 sec) 
 Total Blocks : 262144 Invalid Blocks : 0
Heartbeat CPU 6 instructions: 190000002 cycles: 70109395 heartbeat IPC: 2.32427 cumulative IPC: 2.71005 (Simulation time: 71 hr 1 min 4 sec) 
 Total Blocks : 262144 Invalid Blocks : 0
Heartbeat CPU 0 instructions: 190000002 cycles: 70109627 heartbeat IPC: 2.3241 cumulative IPC: 2.71004 (Simulation time: 71 hr 1 min 4 sec) 
 Total Blocks : 262144 Invalid Blocks : 0
Heartbeat CPU 4 instructions: 190000002 cycles: 70109661 heartbeat IPC: 2.32404 cumulative IPC: 2.71004 (Simulation time: 71 hr 1 min 4 sec) 
 Total Blocks : 262144 Invalid Blocks : 0
Heartbeat CPU 3 instructions: 190000002 cycles: 70109662 heartbeat IPC: 2.32409 cumulative IPC: 2.71004 (Simulation time: 71 hr 1 min 4 sec) 
 Total Blocks : 262144 Invalid Blocks : 0
Heartbeat CPU 1 instructions: 190000002 cycles: 70110346 heartbeat IPC: 2.32393 cumulative IPC: 2.71001 (Simulation time: 71 hr 1 min 4 sec) 
 Total Blocks : 262144 Invalid Blocks : 0
Heartbeat CPU 5 instructions: 190000002 cycles: 70110383 heartbeat IPC: 2.32391 cumulative IPC: 2.71001 (Simulation time: 71 hr 1 min 4 sec) 
 Total Blocks : 262144 Invalid Blocks : 0
Heartbeat CPU 2 instructions: 190000002 cycles: 70110667 heartbeat IPC: 2.32379 cumulative IPC: 2.71 (Simulation time: 71 hr 1 min 5 sec) 
 Total Blocks : 262144 Invalid Blocks : 0
Heartbeat CPU 6 instructions: 200000000 cycles: 74316692 heartbeat IPC: 2.37682 cumulative IPC: 2.69119 (Simulation time: 76 hr 10 min 36 sec) 
 Total Blocks : 262144 Invalid Blocks : 0
Heartbeat CPU 3 instructions: 200000000 cycles: 74316845 heartbeat IPC: 2.37689 cumulative IPC: 2.69118 (Simulation time: 76 hr 10 min 38 sec) 
 Total Blocks : 262144 Invalid Blocks : 0
Heartbeat CPU 7 instructions: 200000000 cycles: 74316909 heartbeat IPC: 2.37661 cumulative IPC: 2.69118 (Simulation time: 76 hr 10 min 38 sec) 
 Total Blocks : 262144 Invalid Blocks : 0
Heartbeat CPU 4 instructions: 200000000 cycles: 74317202 heartbeat IPC: 2.37668 cumulative IPC: 2.69117 (Simulation time: 76 hr 10 min 39 sec) 
 Total Blocks : 262144 Invalid Blocks : 0
Heartbeat CPU 1 instructions: 200000000 cycles: 74317268 heartbeat IPC: 2.37703 cumulative IPC: 2.69116 (Simulation time: 76 hr 10 min 39 sec) 
 Total Blocks : 262144 Invalid Blocks : 0
Heartbeat CPU 0 instructions: 200000000 cycles: 74317666 heartbeat IPC: 2.3764 cumulative IPC: 2.69115 (Simulation time: 76 hr 10 min 40 sec) 
 Total Blocks : 262144 Invalid Blocks : 0
Heartbeat CPU 5 instructions: 200000000 cycles: 74317974 heartbeat IPC: 2.37666 cumulative IPC: 2.69114 (Simulation time: 76 hr 10 min 41 sec) 
 Total Blocks : 262144 Invalid Blocks : 0
Heartbeat CPU 2 instructions: 200000000 cycles: 74318361 heartbeat IPC: 2.3766 cumulative IPC: 2.69112 (Simulation time: 76 hr 10 min 42 sec) 
 Total Blocks : 262144 Invalid Blocks : 0

Warmup complete CPU 0 instructions: 200001828 cycles: 74318362 (Simulation time: 76 hr 10 min 42 sec) 
Warmup complete CPU 1 instructions: 200002888 cycles: 74318362 (Simulation time: 76 hr 10 min 42 sec) 
Warmup complete CPU 2 instructions: 200000004 cycles: 74318362 (Simulation time: 76 hr 10 min 42 sec) 
Warmup complete CPU 3 instructions: 200004097 cycles: 74318361 (Simulation time: 76 hr 10 min 42 sec) 
Warmup complete CPU 4 instructions: 200003139 cycles: 74318361 (Simulation time: 76 hr 10 min 42 sec) 
Warmup complete CPU 5 instructions: 200001020 cycles: 74318361 (Simulation time: 76 hr 10 min 42 sec) 
Warmup complete CPU 6 instructions: 200004561 cycles: 74318361 (Simulation time: 76 hr 10 min 42 sec) 
Warmup complete CPU 7 instructions: 200003946 cycles: 74318361 (Simulation time: 76 hr 10 min 42 sec) 

Heartbeat CPU 0 instructions: 210000001 cycles: 168803545 heartbeat IPC: 0.105836 cumulative IPC: 0.105817 (Simulation time: 83 hr 16 min 53 sec) 
 Total Blocks : 262144 Invalid Blocks : 0
Heartbeat CPU 3 instructions: 210000001 cycles: 168994203 heartbeat IPC: 0.105622 cumulative IPC: 0.10558 (Simulation time: 83 hr 17 min 46 sec) 
 Total Blocks : 262144 Invalid Blocks : 0
Heartbeat CPU 5 instructions: 210000001 cycles: 169015603 heartbeat IPC: 0.105599 cumulative IPC: 0.105589 (Simulation time: 83 hr 17 min 53 sec) 
 Total Blocks : 262144 Invalid Blocks : 0
Heartbeat CPU 6 instructions: 210000001 cycles: 169089646 heartbeat IPC: 0.105515 cumulative IPC: 0.105469 (Simulation time: 83 hr 18 min 11 sec) 
 Total Blocks : 262144 Invalid Blocks : 0
Heartbeat CPU 4 instructions: 210000001 cycles: 169200882 heartbeat IPC: 0.105392 cumulative IPC: 0.10536 (Simulation time: 83 hr 18 min 40 sec) 
 Total Blocks : 262144 Invalid Blocks : 0
Heartbeat CPU 7 instructions: 210000001 cycles: 169645910 heartbeat IPC: 0.1049 cumulative IPC: 0.10486 (Simulation time: 83 hr 20 min 40 sec) 
 Total Blocks : 262144 Invalid Blocks : 0
Heartbeat CPU 2 instructions: 210000001 cycles: 169719343 heartbeat IPC: 0.104821 cumulative IPC: 0.104821 (Simulation time: 83 hr 21 min 1 sec) 
 Total Blocks : 262144 Invalid Blocks : 0
Heartbeat CPU 1 instructions: 210000001 cycles: 169906525 heartbeat IPC: 0.104614 cumulative IPC: 0.104585 (Simulation time: 83 hr 21 min 48 sec) 
 Total Blocks : 262144 Invalid Blocks : 0
Heartbeat CPU 0 instructions: 220000000 cycles: 255247885 heartbeat IPC: 0.115681 cumulative IPC: 0.11053 (Simulation time: 89 hr 50 min 49 sec) 
 Total Blocks : 262144 Invalid Blocks : 0
Heartbeat CPU 3 instructions: 220000000 cycles: 255329566 heartbeat IPC: 0.115827 cumulative IPC: 0.110468 (Simulation time: 89 hr 51 min 12 sec) 
 Total Blocks : 262144 Invalid Blocks : 0
Heartbeat CPU 6 instructions: 220000000 cycles: 255452931 heartbeat IPC: 0.11579 cumulative IPC: 0.11039 (Simulation time: 89 hr 51 min 47 sec) 
 Total Blocks : 262144 Invalid Blocks : 0
Heartbeat CPU 5 instructions: 220000000 cycles: 255472076 heartbeat IPC: 0.115665 cumulative IPC: 0.110398 (Simulation time: 89 hr 51 min 52 sec) 
 Total Blocks : 262144 Invalid Blocks : 0
Heartbeat CPU 4 instructions: 220000000 cycles: 255645149 heartbeat IPC: 0.115681 cumulative IPC: 0.110281 (Simulation time: 89 hr 52 min 39 sec) 
 Total Blocks : 262144 Invalid Blocks : 0
Heartbeat CPU 7 instructions: 220000000 cycles: 256170052 heartbeat IPC: 0.115575 cumulative IPC: 0.109958 (Simulation time: 89 hr 54 min 56 sec) 
 Total Blocks : 262144 Invalid Blocks : 0
Heartbeat CPU 2 instructions: 220000000 cycles: 256387405 heartbeat IPC: 0.115383 cumulative IPC: 0.109848 (Simulation time: 89 hr 56 min 0 sec) 
 Total Blocks : 262144 Invalid Blocks : 0
Heartbeat CPU 1 instructions: 220000000 cycles: 256821978 heartbeat IPC: 0.115054 cumulative IPC: 0.109571 (Simulation time: 89 hr 57 min 59 sec) 
 Total Blocks : 262144 Invalid Blocks : 0
Heartbeat CPU 0 instructions: 230000003 cycles: 340068043 heartbeat IPC: 0.117897 cumulative IPC: 0.112881 (Simulation time: 96 hr 20 min 53 sec) 
 Total Blocks : 262144 Invalid Blocks : 0
Heartbeat CPU 6 instructions: 230000003 cycles: 340259447 heartbeat IPC: 0.117916 cumulative IPC: 0.11279 (Simulation time: 96 hr 21 min 44 sec) 
 Total Blocks : 262144 Invalid Blocks : 0
Heartbeat CPU 3 instructions: 230000003 cycles: 340455429 heartbeat IPC: 0.117473 cumulative IPC: 0.112708 (Simulation time: 96 hr 22 min 33 sec) 
 Total Blocks : 262144 Invalid Blocks : 0
Heartbeat CPU 4 instructions: 230000003 cycles: 340675120 heartbeat IPC: 0.117606 cumulative IPC: 0.112619 (Simulation time: 96 hr 23 min 30 sec) 
 Total Blocks : 262144 Invalid Blocks : 0
Heartbeat CPU 5 instructions: 230000003 cycles: 340733644 heartbeat IPC: 0.117286 cumulative IPC: 0.112602 (Simulation time: 96 hr 23 min 45 sec) 
 Total Blocks : 262144 Invalid Blocks : 0
Heartbeat CPU 7 instructions: 230000003 cycles: 340871682 heartbeat IPC: 0.118062 cumulative IPC: 0.112533 (Simulation time: 96 hr 24 min 28 sec) 
 Total Blocks : 262144 Invalid Blocks : 0
Heartbeat CPU 2 instructions: 230000003 cycles: 341888112 heartbeat IPC: 0.116958 cumulative IPC: 0.11212 (Simulation time: 96 hr 29 min 3 sec) 
 Total Blocks : 262144 Invalid Blocks : 0
Heartbeat CPU 1 instructions: 230000003 cycles: 342264823 heartbeat IPC: 0.117037 cumulative IPC: 0.111952 (Simulation time: 96 hr 30 min 44 sec) 
 Total Blocks : 262144 Invalid Blocks : 0
Heartbeat CPU 6 instructions: 240000003 cycles: 421006412 heartbeat IPC: 0.123844 cumulative IPC: 0.115364 (Simulation time: 102 hr 21 min 40 sec) 
 Total Blocks : 262144 Invalid Blocks : 0
Heartbeat CPU 3 instructions: 240000003 cycles: 421151277 heartbeat IPC: 0.123922 cumulative IPC: 0.115318 (Simulation time: 102 hr 22 min 18 sec) 
 Total Blocks : 262144 Invalid Blocks : 0
Heartbeat CPU 0 instructions: 240000003 cycles: 421164250 heartbeat IPC: 0.12331 cumulative IPC: 0.11532 (Simulation time: 102 hr 22 min 23 sec) 
 Total Blocks : 262144 Invalid Blocks : 0
Heartbeat CPU 4 instructions: 240000003 cycles: 421775508 heartbeat IPC: 0.123304 cumulative IPC: 0.115113 (Simulation time: 102 hr 25 min 6 sec) 
 Total Blocks : 262144 Invalid Blocks : 0
Heartbeat CPU 7 instructions: 240000003 cycles: 422012436 heartbeat IPC: 0.123243 cumulative IPC: 0.115032 (Simulation time: 102 hr 26 min 11 sec) 
 Total Blocks : 262144 Invalid Blocks : 0
Heartbeat CPU 5 instructions: 240000003 cycles: 422137952 heartbeat IPC: 0.122844 cumulative IPC: 0.114999 (Simulation time: 102 hr 26 min 44 sec) 
 Total Blocks : 262144 Invalid Blocks : 0
Heartbeat CPU 2 instructions: 240000001 cycles: 422525650 heartbeat IPC: 0.124012 cumulative IPC: 0.114874 (Simulation time: 102 hr 28 min 36 sec) 
 Total Blocks : 262144 Invalid Blocks : 0
Heartbeat CPU 1 instructions: 240000003 cycles: 423111087 heartbeat IPC: 0.123692 cumulative IPC: 0.114673 (Simulation time: 102 hr 31 min 15 sec) 
 Total Blocks : 262144 Invalid Blocks : 0
Heartbeat CPU 0 instructions: 250000003 cycles: 501786404 heartbeat IPC: 0.124035 cumulative IPC: 0.116964 (Simulation time: 108 hr 18 min 0 sec) 
 Total Blocks : 262144 Invalid Blocks : 0
Heartbeat CPU 6 instructions: 250000003 cycles: 502203059 heartbeat IPC: 0.123158 cumulative IPC: 0.116843 (Simulation time: 108 hr 19 min 51 sec) 
 Total Blocks : 262144 Invalid Blocks : 0
Heartbeat CPU 3 instructions: 250000003 cycles: 502207178 heartbeat IPC: 0.123372 cumulative IPC: 0.116843 (Simulation time: 108 hr 19 min 53 sec) 
 Total Blocks : 262144 Invalid Blocks : 0
Heartbeat CPU 4 instructions: 250000000 cycles: 503057922 heartbeat IPC: 0.123028 cumulative IPC: 0.116614 (Simulation time: 108 hr 23 min 37 sec) 
 Total Blocks : 262144 Invalid Blocks : 0
Heartbeat CPU 7 instructions: 250000003 cycles: 503312422 heartbeat IPC: 0.123001 cumulative IPC: 0.116543 (Simulation time: 108 hr 24 min 47 sec) 
 Total Blocks : 262144 Invalid Blocks : 0
Heartbeat CPU 2 instructions: 250000003 cycles: 503594852 heartbeat IPC: 0.123351 cumulative IPC: 0.116475 (Simulation time: 108 hr 26 min 0 sec) 
 Total Blocks : 262144 Invalid Blocks : 0
Heartbeat CPU 5 instructions: 250000000 cycles: 503696953 heartbeat IPC: 0.122611 cumulative IPC: 0.116445 (Simulation time: 108 hr 26 min 27 sec) 
 Total Blocks : 262144 Invalid Blocks : 0
Heartbeat CPU 1 instructions: 250000001 cycles: 504220969 heartbeat IPC: 0.12329 cumulative IPC: 0.116299 (Simulation time: 108 hr 28 min 49 sec) 
 Total Blocks : 262144 Invalid Blocks : 0
Heartbeat CPU 0 instructions: 260000002 cycles: 582839846 heartbeat IPC: 0.123375 cumulative IPC: 0.117986 (Simulation time: 113 hr 27 min 18 sec) 
 Total Blocks : 262144 Invalid Blocks : 0
Heartbeat CPU 6 instructions: 260000003 cycles: 582864906 heartbeat IPC: 0.123974 cumulative IPC: 0.117974 (Simulation time: 113 hr 27 min 21 sec) 
 Total Blocks : 262144 Invalid Blocks : 0
Heartbeat CPU 3 instructions: 260000002 cycles: 583143413 heartbeat IPC: 0.123554 cumulative IPC: 0.117911 (Simulation time: 113 hr 28 min 26 sec) 
 Total Blocks : 262144 Invalid Blocks : 0
Heartbeat CPU 7 instructions: 260000003 cycles: 583929795 heartbeat IPC: 0.124043 cumulative IPC: 0.117729 (Simulation time: 113 hr 31 min 22 sec) 
 Total Blocks : 262144 Invalid Blocks : 0
Heartbeat CPU 2 instructions: 260000002 cycles: 584112278 heartbeat IPC: 0.124197 cumulative IPC: 0.117695 (Simulation time: 113 hr 32 min 3 sec) 
 Total Blocks : 262144 Invalid Blocks : 0
Heartbeat CPU 4 instructions: 260000003 cycles: 584307126 heartbeat IPC: 0.123078 cumulative IPC: 0.117643 (Simulation time: 113 hr 32 min 47 sec) 
 Total Blocks : 262144 Invalid Blocks : 0
Heartbeat CPU 1 instructions: 260000003 cycles: 584838387 heartbeat IPC: 0.124043 cumulative IPC: 0.117522 (Simulation time: 113 hr 34 min 47 sec) 
 Total Blocks : 262144 Invalid Blocks : 0
Heartbeat CPU 5 instructions: 260000002 cycles: 585024122 heartbeat IPC: 0.12296 cumulative IPC: 0.117482 (Simulation time: 113 hr 35 min 27 sec) 
 Total Blocks : 262144 Invalid Blocks : 0
Heartbeat CPU 0 instructions: 270000000 cycles: 660996985 heartbeat IPC: 0.127947 cumulative IPC: 0.119313 (Simulation time: 118 hr 11 min 4 sec) 
 Total Blocks : 262144 Invalid Blocks : 0
Heartbeat CPU 6 instructions: 270000000 cycles: 661258585 heartbeat IPC: 0.127561 cumulative IPC: 0.119255 (Simulation time: 118 hr 11 min 57 sec) 
 Total Blocks : 262144 Invalid Blocks : 0
Heartbeat CPU 3 instructions: 270000000 cycles: 661556050 heartbeat IPC: 0.12753 cumulative IPC: 0.119195 (Simulation time: 118 hr 12 min 54 sec) 
 Total Blocks : 262144 Invalid Blocks : 0
Heartbeat CPU 2 instructions: 270000000 cycles: 662313594 heartbeat IPC: 0.127875 cumulative IPC: 0.119049 (Simulation time: 118 hr 15 min 39 sec) 
 Total Blocks : 262144 Invalid Blocks : 0
Heartbeat CPU 7 instructions: 270000000 cycles: 662333615 heartbeat IPC: 0.127545 cumulative IPC: 0.119038 (Simulation time: 118 hr 15 min 43 sec) 
 Total Blocks : 262144 Invalid Blocks : 0
Heartbeat CPU 1 instructions: 270000000 cycles: 662959181 heartbeat IPC: 0.128007 cumulative IPC: 0.118913 (Simulation time: 118 hr 18 min 1 sec) 
 Total Blocks : 262144 Invalid Blocks : 0
Heartbeat CPU 4 instructions: 270000000 cycles: 663279621 heartbeat IPC: 0.126626 cumulative IPC: 0.118848 (Simulation time: 118 hr 19 min 9 sec) 
 Total Blocks : 262144 Invalid Blocks : 0
Heartbeat CPU 5 instructions: 270000000 cycles: 663618148 heartbeat IPC: 0.127236 cumulative IPC: 0.118783 (Simulation time: 118 hr 20 min 18 sec) 
 Total Blocks : 262144 Invalid Blocks : 0
Heartbeat CPU 0 instructions: 280000002 cycles: 739344225 heartbeat IPC: 0.127637 cumulative IPC: 0.120293 (Simulation time: 122 hr 48 min 16 sec) 
 Total Blocks : 262144 Invalid Blocks : 0
Heartbeat CPU 3 instructions: 280000002 cycles: 739634548 heartbeat IPC: 0.128076 cumulative IPC: 0.120237 (Simulation time: 122 hr 49 min 16 sec) 
 Total Blocks : 262144 Invalid Blocks : 0
Heartbeat CPU 6 instructions: 280000002 cycles: 739768562 heartbeat IPC: 0.127372 cumulative IPC: 0.120213 (Simulation time: 122 hr 49 min 43 sec) 
 Total Blocks : 262144 Invalid Blocks : 0
Heartbeat CPU 2 instructions: 280000002 cycles: 740700361 heartbeat IPC: 0.127573 cumulative IPC: 0.120051 (Simulation time: 122 hr 52 min 56 sec) 
 Total Blocks : 262144 Invalid Blocks : 0
Heartbeat CPU 1 instructions: 280000002 cycles: 741027719 heartbeat IPC: 0.128093 cumulative IPC: 0.119988 (Simulation time: 122 hr 54 min 1 sec) 
 Total Blocks : 262144 Invalid Blocks : 0
Heartbeat CPU 7 instructions: 280000002 cycles: 741318775 heartbeat IPC: 0.126606 cumulative IPC: 0.119934 (Simulation time: 122 hr 55 min 3 sec) 
 Total Blocks : 262144 Invalid Blocks : 0
Heartbeat CPU 4 instructions: 280000002 cycles: 742053014 heartbeat IPC: 0.126946 cumulative IPC: 0.119803 (Simulation time: 122 hr 57 min 34 sec) 
 Total Blocks : 262144 Invalid Blocks : 0
Heartbeat CPU 5 instructions: 280000002 cycles: 742353928 heartbeat IPC: 0.127007 cumulative IPC: 0.119753 (Simulation time: 122 hr 58 min 33 sec) 
 Total Blocks : 262144 Invalid Blocks : 0
Heartbeat CPU 0 instructions: 290000002 cycles: 818679204 heartbeat IPC: 0.126048 cumulative IPC: 0.120907 (Simulation time: 127 hr 15 min 36 sec) 
 Total Blocks : 262144 Invalid Blocks : 0
Heartbeat CPU 3 instructions: 290000002 cycles: 819101729 heartbeat IPC: 0.125838 cumulative IPC: 0.120835 (Simulation time: 127 hr 16 min 57 sec) 
 Total Blocks : 262144 Invalid Blocks : 0
Heartbeat CPU 6 instructions: 290000002 cycles: 819151619 heartbeat IPC: 0.125971 cumulative IPC: 0.120826 (Simulation time: 127 hr 17 min 7 sec) 
 Total Blocks : 262144 Invalid Blocks : 0
Heartbeat CPU 2 instructions: 290000002 cycles: 819968339 heartbeat IPC: 0.126154 cumulative IPC: 0.1207 (Simulation time: 127 hr 19 min 45 sec) 
 Total Blocks : 262144 Invalid Blocks : 0
Heartbeat CPU 1 instructions: 290000002 cycles: 820602752 heartbeat IPC: 0.125668 cumulative IPC: 0.120594 (Simulation time: 127 hr 21 min 46 sec) 
 Total Blocks : 262144 Invalid Blocks : 0
Heartbeat CPU 7 instructions: 290000002 cycles: 821027163 heartbeat IPC: 0.125457 cumulative IPC: 0.120524 (Simulation time: 127 hr 23 min 12 sec) 
 Total Blocks : 262144 Invalid Blocks : 0
Heartbeat CPU 5 instructions: 290000002 cycles: 821751761 heartbeat IPC: 0.125948 cumulative IPC: 0.120411 (Simulation time: 127 hr 25 min 30 sec) 
 Total Blocks : 262144 Invalid Blocks : 0
Heartbeat CPU 4 instructions: 290000002 cycles: 822002220 heartbeat IPC: 0.125079 cumulative IPC: 0.120368 (Simulation time: 127 hr 26 min 18 sec) 
 Total Blocks : 262144 Invalid Blocks : 0
Heartbeat CPU 0 instructions: 300000002 cycles: 900107745 heartbeat IPC: 0.122807 cumulative IPC: 0.121094 (Simulation time: 131 hr 42 min 0 sec) 
 Total Blocks : 262144 Invalid Blocks : 0
Heartbeat CPU 3 instructions: 300000001 cycles: 900640290 heartbeat IPC: 0.122641 cumulative IPC: 0.121013 (Simulation time: 131 hr 43 min 42 sec) 
 Total Blocks : 262144 Invalid Blocks : 0
Heartbeat CPU 6 instructions: 300000002 cycles: 900910856 heartbeat IPC: 0.12231 cumulative IPC: 0.120973 (Simulation time: 131 hr 44 min 35 sec) 
 Total Blocks : 262144 Invalid Blocks : 0
Heartbeat CPU 2 instructions: 300000000 cycles: 901532808 heartbeat IPC: 0.122602 cumulative IPC: 0.120888 (Simulation time: 131 hr 46 min 41 sec) 
 Total Blocks : 262144 Invalid Blocks : 0
Heartbeat CPU 1 instructions: 300000002 cycles: 901847327 heartbeat IPC: 0.123085 cumulative IPC: 0.120838 (Simulation time: 131 hr 47 min 42 sec) 
 Total Blocks : 262144 Invalid Blocks : 0
Heartbeat CPU 7 instructions: 300000000 cycles: 902957859 heartbeat IPC: 0.122054 cumulative IPC: 0.120675 (Simulation time: 131 hr 51 min 20 sec) 
 Total Blocks : 262144 Invalid Blocks : 0
Heartbeat CPU 5 instructions: 300000002 cycles: 903373567 heartbeat IPC: 0.122516 cumulative IPC: 0.120618 (Simulation time: 131 hr 52 min 42 sec) 
 Total Blocks : 262144 Invalid Blocks : 0
Heartbeat CPU 4 instructions: 300000002 cycles: 904261261 heartbeat IPC: 0.121567 cumulative IPC: 0.120486 (Simulation time: 131 hr 55 min 36 sec) 
 Total Blocks : 262144 Invalid Blocks : 0
Heartbeat CPU 0 instructions: 310000002 cycles: 984241553 heartbeat IPC: 0.118858 cumulative IPC: 0.120887 (Simulation time: 136 hr 15 min 15 sec) 
 Total Blocks : 262144 Invalid Blocks : 0
Heartbeat CPU 6 instructions: 310000001 cycles: 984838107 heartbeat IPC: 0.119151 cumulative IPC: 0.120805 (Simulation time: 136 hr 17 min 9 sec) 
 Total Blocks : 262144 Invalid Blocks : 0
Heartbeat CPU 3 instructions: 310000002 cycles: 984906631 heartbeat IPC: 0.118671 cumulative IPC: 0.120797 (Simulation time: 136 hr 17 min 22 sec) 
 Total Blocks : 262144 Invalid Blocks : 0
Heartbeat CPU 2 instructions: 310000002 cycles: 985542503 heartbeat IPC: 0.119034 cumulative IPC: 0.120717 (Simulation time: 136 hr 19 min 23 sec) 
 Total Blocks : 262144 Invalid Blocks : 0
Heartbeat CPU 1 instructions: 310000001 cycles: 985893850 heartbeat IPC: 0.118982 cumulative IPC: 0.120667 (Simulation time: 136 hr 20 min 29 sec) 
 Total Blocks : 262144 Invalid Blocks : 0
Heartbeat CPU 5 instructions: 310000003 cycles: 987425357 heartbeat IPC: 0.118974 cumulative IPC: 0.120467 (Simulation time: 136 hr 25 min 21 sec) 
 Total Blocks : 262144 Invalid Blocks : 0
Heartbeat CPU 7 instructions: 310000001 cycles: 987798640 heartbeat IPC: 0.117868 cumulative IPC: 0.120414 (Simulation time: 136 hr 26 min 34 sec) 
 Total Blocks : 262144 Invalid Blocks : 0
Heartbeat CPU 4 instructions: 310000003 cycles: 988865502 heartbeat IPC: 0.118197 cumulative IPC: 0.120275 (Simulation time: 136 hr 29 min 56 sec) 
 Total Blocks : 262144 Invalid Blocks : 0
Heartbeat CPU 0 instructions: 320000001 cycles: 1069849236 heartbeat IPC: 0.116812 cumulative IPC: 0.120537 (Simulation time: 140 hr 46 min 55 sec) 
 Total Blocks : 262144 Invalid Blocks : 0
Heartbeat CPU 6 instructions: 320000001 cycles: 1070089162 heartbeat IPC: 0.117301 cumulative IPC: 0.120505 (Simulation time: 140 hr 47 min 42 sec) 
 Total Blocks : 262144 Invalid Blocks : 0
Heartbeat CPU 3 instructions: 320000001 cycles: 1070589562 heartbeat IPC: 0.116709 cumulative IPC: 0.120445 (Simulation time: 140 hr 49 min 16 sec) 
 Total Blocks : 262144 Invalid Blocks : 0
Heartbeat CPU 2 instructions: 320000001 cycles: 1070611634 heartbeat IPC: 0.117551 cumulative IPC: 0.120446 (Simulation time: 140 hr 49 min 21 sec) 
 Total Blocks : 262144 Invalid Blocks : 0
Heartbeat CPU 1 instructions: 320000001 cycles: 1070901011 heartbeat IPC: 0.117637 cumulative IPC: 0.120409 (Simulation time: 140 hr 50 min 16 sec) 
 Total Blocks : 262144 Invalid Blocks : 0
Heartbeat CPU 5 instructions: 320000001 cycles: 1072486332 heartbeat IPC: 0.117563 cumulative IPC: 0.120219 (Simulation time: 140 hr 55 min 20 sec) 
 Total Blocks : 262144 Invalid Blocks : 0
Heartbeat CPU 7 instructions: 320000001 cycles: 1074094458 heartbeat IPC: 0.11588 cumulative IPC: 0.120023 (Simulation time: 141 hr 0 min 27 sec) 
 Total Blocks : 262144 Invalid Blocks : 0
Heartbeat CPU 4 instructions: 320000001 cycles: 1074727400 heartbeat IPC: 0.116466 cumulative IPC: 0.119948 (Simulation time: 141 hr 2 min 27 sec) 
 Total Blocks : 262144 Invalid Blocks : 0
Heartbeat CPU 0 instructions: 330000000 cycles: 1154678660 heartbeat IPC: 0.117884 cumulative IPC: 0.120329 (Simulation time: 145 hr 18 min 39 sec) 
 Total Blocks : 262144 Invalid Blocks : 0
Heartbeat CPU 6 instructions: 330000000 cycles: 1155382161 heartbeat IPC: 0.117243 cumulative IPC: 0.120248 (Simulation time: 145 hr 20 min 52 sec) 
 Total Blocks : 262144 Invalid Blocks : 0
Heartbeat CPU 3 instructions: 330000000 cycles: 1155500796 heartbeat IPC: 0.11777 cumulative IPC: 0.120235 (Simulation time: 145 hr 21 min 15 sec) 
 Total Blocks : 262144 Invalid Blocks : 0
Heartbeat CPU 2 instructions: 330000000 cycles: 1155530884 heartbeat IPC: 0.117759 cumulative IPC: 0.120235 (Simulation time: 145 hr 21 min 21 sec) 
 Total Blocks : 262144 Invalid Blocks : 0
Heartbeat CPU 1 instructions: 330000000 cycles: 1155655461 heartbeat IPC: 0.117988 cumulative IPC: 0.120219 (Simulation time: 145 hr 21 min 43 sec) 
 Total Blocks : 262144 Invalid Blocks : 0
Heartbeat CPU 5 instructions: 330000000 cycles: 1157113006 heartbeat IPC: 0.118166 cumulative IPC: 0.120059 (Simulation time: 145 hr 26 min 20 sec) 
 Total Blocks : 262144 Invalid Blocks : 0
Heartbeat CPU 7 instructions: 330000000 cycles: 1159104238 heartbeat IPC: 0.117634 cumulative IPC: 0.119836 (Simulation time: 145 hr 32 min 39 sec) 
 Total Blocks : 262144 Invalid Blocks : 0
Heartbeat CPU 4 instructions: 330000000 cycles: 1159322171 heartbeat IPC: 0.118211 cumulative IPC: 0.119812 (Simulation time: 145 hr 33 min 21 sec) 
 Total Blocks : 262144 Invalid Blocks : 0
Heartbeat CPU 0 instructions: 340000002 cycles: 1235713452 heartbeat IPC: 0.123404 cumulative IPC: 0.120543 (Simulation time: 149 hr 39 min 38 sec) 
 Total Blocks : 262144 Invalid Blocks : 0
Heartbeat CPU 2 instructions: 340000000 cycles: 1236580902 heartbeat IPC: 0.123381 cumulative IPC: 0.120455 (Simulation time: 149 hr 42 min 26 sec) 
 Total Blocks : 262144 Invalid Blocks : 0
Heartbeat CPU 3 instructions: 340000002 cycles: 1236967516 heartbeat IPC: 0.12275 cumulative IPC: 0.120411 (Simulation time: 149 hr 43 min 43 sec) 
 Total Blocks : 262144 Invalid Blocks : 0
Heartbeat CPU 6 instructions: 340000000 cycles: 1237002289 heartbeat IPC: 0.122519 cumulative IPC: 0.120407 (Simulation time: 149 hr 43 min 49 sec) 
 Total Blocks : 262144 Invalid Blocks : 0
Heartbeat CPU 1 instructions: 340000002 cycles: 1237380653 heartbeat IPC: 0.122361 cumulative IPC: 0.120369 (Simulation time: 149 hr 45 min 4 sec) 
 Total Blocks : 262144 Invalid Blocks : 0
Heartbeat CPU 5 instructions: 340000002 cycles: 1238349521 heartbeat IPC: 0.123097 cumulative IPC: 0.120271 (Simulation time: 149 hr 48 min 12 sec) 
 Total Blocks : 262144 Invalid Blocks : 0
Heartbeat CPU 4 instructions: 340000002 cycles: 1240551851 heartbeat IPC: 0.123108 cumulative IPC: 0.120042 (Simulation time: 149 hr 55 min 23 sec) 
 Total Blocks : 262144 Invalid Blocks : 0
Heartbeat CPU 7 instructions: 340000002 cycles: 1240849849 heartbeat IPC: 0.122331 cumulative IPC: 0.120011 (Simulation time: 149 hr 56 min 23 sec) 
 Total Blocks : 262144 Invalid Blocks : 0
Heartbeat CPU 0 instructions: 350000000 cycles: 1318950410 heartbeat IPC: 0.120139 cumulative IPC: 0.120516 (Simulation time: 154 hr 15 min 45 sec) 
 Total Blocks : 262144 Invalid Blocks : 0
Heartbeat CPU 2 instructions: 350000000 cycles: 1319882705 heartbeat IPC: 0.120045 cumulative IPC: 0.120427 (Simulation time: 154 hr 18 min 53 sec) 
 Total Blocks : 262144 Invalid Blocks : 0
Heartbeat CPU 6 instructions: 350000000 cycles: 1320506829 heartbeat IPC: 0.119754 cumulative IPC: 0.120363 (Simulation time: 154 hr 20 min 58 sec) 
 Total Blocks : 262144 Invalid Blocks : 0
Heartbeat CPU 3 instructions: 350000000 cycles: 1320998508 heartbeat IPC: 0.119004 cumulative IPC: 0.120316 (Simulation time: 154 hr 22 min 36 sec) 
 Total Blocks : 262144 Invalid Blocks : 0
Heartbeat CPU 1 instructions: 350000000 cycles: 1321247417 heartbeat IPC: 0.119237 cumulative IPC: 0.120293 (Simulation time: 154 hr 23 min 27 sec) 
 Total Blocks : 262144 Invalid Blocks : 0
Heartbeat CPU 5 instructions: 350000000 cycles: 1321942284 heartbeat IPC: 0.119628 cumulative IPC: 0.120228 (Simulation time: 154 hr 25 min 47 sec) 
 Total Blocks : 262144 Invalid Blocks : 0
Heartbeat CPU 4 instructions: 350000000 cycles: 1323741083 heartbeat IPC: 0.120208 cumulative IPC: 0.120053 (Simulation time: 154 hr 31 min 51 sec) 
 Total Blocks : 262144 Invalid Blocks : 0
Heartbeat CPU 7 instructions: 350000000 cycles: 1324254749 heartbeat IPC: 0.119897 cumulative IPC: 0.120003 (Simulation time: 154 hr 33 min 36 sec) 
 Total Blocks : 262144 Invalid Blocks : 0
Heartbeat CPU 0 instructions: 360000002 cycles: 1402487909 heartbeat IPC: 0.119707 cumulative IPC: 0.120465 (Simulation time: 159 hr 2 min 31 sec) 
 Total Blocks : 262144 Invalid Blocks : 0
Heartbeat CPU 2 instructions: 360000002 cycles: 1403211892 heartbeat IPC: 0.120006 cumulative IPC: 0.120401 (Simulation time: 159 hr 4 min 57 sec) 
 Total Blocks : 262144 Invalid Blocks : 0
Heartbeat CPU 6 instructions: 360000002 cycles: 1403704404 heartbeat IPC: 0.120196 cumulative IPC: 0.120353 (Simulation time: 159 hr 6 min 39 sec) 
 Total Blocks : 262144 Invalid Blocks : 0
Heartbeat CPU 3 instructions: 360000002 cycles: 1404953763 heartbeat IPC: 0.119111 cumulative IPC: 0.12024 (Simulation time: 159 hr 10 min 58 sec) 
 Total Blocks : 262144 Invalid Blocks : 0
Heartbeat CPU 1 instructions: 360000002 cycles: 1405222623 heartbeat IPC: 0.119083 cumulative IPC: 0.120217 (Simulation time: 159 hr 11 min 53 sec) 
 Total Blocks : 262144 Invalid Blocks : 0
Heartbeat CPU 5 instructions: 360000002 cycles: 1405820002 heartbeat IPC: 0.119221 cumulative IPC: 0.120164 (Simulation time: 159 hr 13 min 50 sec) 
 Total Blocks : 262144 Invalid Blocks : 0
Heartbeat CPU 4 instructions: 360000002 cycles: 1407321059 heartbeat IPC: 0.119646 cumulative IPC: 0.120027 (Simulation time: 159 hr 18 min 47 sec) 
 Total Blocks : 262144 Invalid Blocks : 0
Heartbeat CPU 7 instructions: 360000002 cycles: 1407952210 heartbeat IPC: 0.119478 cumulative IPC: 0.11997 (Simulation time: 159 hr 20 min 50 sec) 
 Total Blocks : 262144 Invalid Blocks : 0
Heartbeat CPU 0 instructions: 370000003 cycles: 1484345414 heartbeat IPC: 0.122164 cumulative IPC: 0.120564 (Simulation time: 163 hr 27 min 52 sec) 
 Total Blocks : 262144 Invalid Blocks : 0
Heartbeat CPU 2 instructions: 370000003 cycles: 1485394046 heartbeat IPC: 0.121681 cumulative IPC: 0.120475 (Simulation time: 163 hr 31 min 16 sec) 
 Total Blocks : 262144 Invalid Blocks : 0
Heartbeat CPU 6 instructions: 370000003 cycles: 1485604774 heartbeat IPC: 0.1221 cumulative IPC: 0.120454 (Simulation time: 163 hr 31 min 58 sec) 
 Total Blocks : 262144 Invalid Blocks : 0
Heartbeat CPU 3 instructions: 370000003 cycles: 1487074684 heartbeat IPC: 0.121772 cumulative IPC: 0.120329 (Simulation time: 163 hr 36 min 39 sec) 
 Total Blocks : 262144 Invalid Blocks : 0
Heartbeat CPU 5 instructions: 370000003 cycles: 1487236968 heartbeat IPC: 0.122825 cumulative IPC: 0.120318 (Simulation time: 163 hr 37 min 10 sec) 
 Total Blocks : 262144 Invalid Blocks : 0
Heartbeat CPU 1 instructions: 370000003 cycles: 1487600658 heartbeat IPC: 0.121392 cumulative IPC: 0.120285 (Simulation time: 163 hr 38 min 19 sec) 
 Total Blocks : 262144 Invalid Blocks : 0
Heartbeat CPU 4 instructions: 370000003 cycles: 1488686722 heartbeat IPC: 0.122902 cumulative IPC: 0.120193 (Simulation time: 163 hr 41 min 53 sec) 
 Total Blocks : 262144 Invalid Blocks : 0
Heartbeat CPU 7 instructions: 370000003 cycles: 1489455401 heartbeat IPC: 0.122695 cumulative IPC: 0.120127 (Simulation time: 163 hr 44 min 21 sec) 
 Total Blocks : 262144 Invalid Blocks : 0
Heartbeat CPU 0 instructions: 380000003 cycles: 1566298184 heartbeat IPC: 0.122022 cumulative IPC: 0.120644 (Simulation time: 167 hr 54 min 9 sec) 
 Total Blocks : 262144 Invalid Blocks : 0
Heartbeat CPU 2 instructions: 380000003 cycles: 1567295617 heartbeat IPC: 0.122098 cumulative IPC: 0.120564 (Simulation time: 167 hr 57 min 21 sec) 
 Total Blocks : 262144 Invalid Blocks : 0
Heartbeat CPU 6 instructions: 380000003 cycles: 1568250447 heartbeat IPC: 0.120998 cumulative IPC: 0.120484 (Simulation time: 168 hr 0 min 27 sec) 
 Total Blocks : 262144 Invalid Blocks : 0
Heartbeat CPU 3 instructions: 380000003 cycles: 1569166294 heartbeat IPC: 0.121815 cumulative IPC: 0.120411 (Simulation time: 168 hr 3 min 27 sec) 
 Total Blocks : 262144 Invalid Blocks : 0
Heartbeat CPU 5 instructions: 380000003 cycles: 1569545806 heartbeat IPC: 0.121494 cumulative IPC: 0.120382 (Simulation time: 168 hr 4 min 41 sec) 
 Total Blocks : 262144 Invalid Blocks : 0
Heartbeat CPU 1 instructions: 380000003 cycles: 1570660565 heartbeat IPC: 0.120395 cumulative IPC: 0.120291 (Simulation time: 168 hr 8 min 20 sec) 
 Total Blocks : 262144 Invalid Blocks : 0
Heartbeat CPU 4 instructions: 380000003 cycles: 1570971357 heartbeat IPC: 0.121529 cumulative IPC: 0.120266 (Simulation time: 168 hr 9 min 22 sec) 
 Total Blocks : 262144 Invalid Blocks : 0
Heartbeat CPU 7 instructions: 380000003 cycles: 1571724019 heartbeat IPC: 0.121553 cumulative IPC: 0.120205 (Simulation time: 168 hr 11 min 47 sec) 
 Total Blocks : 262144 Invalid Blocks : 0
Heartbeat CPU 0 instructions: 390000000 cycles: 1646044724 heartbeat IPC: 0.125397 cumulative IPC: 0.120885 (Simulation time: 172 hr 18 min 5 sec) 
 Total Blocks : 262144 Invalid Blocks : 0
Heartbeat CPU 2 instructions: 390000000 cycles: 1646888461 heartbeat IPC: 0.125639 cumulative IPC: 0.120821 (Simulation time: 172 hr 20 min 57 sec) 
 Total Blocks : 262144 Invalid Blocks : 0
Heartbeat CPU 6 instructions: 390000000 cycles: 1647748580 heartbeat IPC: 0.125789 cumulative IPC: 0.120752 (Simulation time: 172 hr 23 min 55 sec) 
 Total Blocks : 262144 Invalid Blocks : 0
Heartbeat CPU 5 instructions: 390000000 cycles: 1648936730 heartbeat IPC: 0.125959 cumulative IPC: 0.120664 (Simulation time: 172 hr 28 min 0 sec) 
 Total Blocks : 262144 Invalid Blocks : 0
Heartbeat CPU 3 instructions: 390000000 cycles: 1649037321 heartbeat IPC: 0.125202 cumulative IPC: 0.120654 (Simulation time: 172 hr 28 min 20 sec) 
 Total Blocks : 262144 Invalid Blocks : 0
Heartbeat CPU 4 instructions: 390000000 cycles: 1650353745 heartbeat IPC: 0.125972 cumulative IPC: 0.120554 (Simulation time: 172 hr 32 min 50 sec) 
 Total Blocks : 262144 Invalid Blocks : 0
Heartbeat CPU 1 instructions: 390000000 cycles: 1650862961 heartbeat IPC: 0.124685 cumulative IPC: 0.120515 (Simulation time: 172 hr 34 min 34 sec) 
 Total Blocks : 262144 Invalid Blocks : 0
Heartbeat CPU 7 instructions: 390000000 cycles: 1651563917 heartbeat IPC: 0.125251 cumulative IPC: 0.120461 (Simulation time: 172 hr 36 min 57 sec) 
 Total Blocks : 262144 Invalid Blocks : 0
Heartbeat CPU 0 instructions: 400000002 cycles: 1728887866 heartbeat IPC: 0.12071 cumulative IPC: 0.120876 (Simulation time: 176 hr 59 min 8 sec) 
 Total Blocks : 262144 Invalid Blocks : 0
Finished CPU 0 instructions: 200000001 cycles: 1654597815 cumulative IPC: 0.120875 (Simulation time: 176 hr 59 min 15 sec) 
Heartbeat CPU 2 instructions: 400000003 cycles: 1729878058 heartbeat IPC: 0.120497 cumulative IPC: 0.120805 (Simulation time: 177 hr 2 min 28 sec) 
 Total Blocks : 262144 Invalid Blocks : 0
Finished CPU 2 instructions: 200000003 cycles: 1655559697 cumulative IPC: 0.120805 (Simulation time: 177 hr 2 min 28 sec) 
Heartbeat CPU 6 instructions: 400000003 cycles: 1731070865 heartbeat IPC: 0.120016 cumulative IPC: 0.120715 (Simulation time: 177 hr 6 min 36 sec) 
 Total Blocks : 262144 Invalid Blocks : 0
Finished CPU 6 instructions: 200000001 cycles: 1656813602 cumulative IPC: 0.120714 (Simulation time: 177 hr 6 min 47 sec) 
Heartbeat CPU 5 instructions: 400000003 cycles: 1731924318 heartbeat IPC: 0.1205 cumulative IPC: 0.120655 (Simulation time: 177 hr 9 min 28 sec) 
 Total Blocks : 262144 Invalid Blocks : 0
Finished CPU 5 instructions: 200000000 cycles: 1657615481 cumulative IPC: 0.120655 (Simulation time: 177 hr 9 min 30 sec) 
Heartbeat CPU 3 instructions: 400000003 cycles: 1732394243 heartbeat IPC: 0.119966 cumulative IPC: 0.120619 (Simulation time: 177 hr 11 min 7 sec) 
 Total Blocks : 262144 Invalid Blocks : 0
Finished CPU 3 instructions: 200000003 cycles: 1658115460 cumulative IPC: 0.120619 (Simulation time: 177 hr 11 min 16 sec) 
Heartbeat CPU 4 instructions: 400000000 cycles: 1733654808 heartbeat IPC: 0.120046 cumulative IPC: 0.120528 (Simulation time: 177 hr 15 min 25 sec) 
 Total Blocks : 262144 Invalid Blocks : 0
Finished CPU 4 instructions: 200000001 cycles: 1659375593 cumulative IPC: 0.120527 (Simulation time: 177 hr 15 min 33 sec) 
Heartbeat CPU 1 instructions: 400000003 cycles: 1734705973 heartbeat IPC: 0.119271 cumulative IPC: 0.120452 (Simulation time: 177 hr 19 min 4 sec) 
 Total Blocks : 262144 Invalid Blocks : 0
Finished CPU 1 instructions: 200000001 cycles: 1660419226 cumulative IPC: 0.120452 (Simulation time: 177 hr 19 min 10 sec) 
Heartbeat CPU 7 instructions: 400000003 cycles: 1735099500 heartbeat IPC: 0.119709 cumulative IPC: 0.120423 (Simulation time: 177 hr 20 min 24 sec) 
 Total Blocks : 262144 Invalid Blocks : 0
Finished CPU 7 instructions: 200000000 cycles: 1660822974 cumulative IPC: 0.120422 (Simulation time: 177 hr 20 min 33 sec) 

CPU 0 Branch Prediction Accuracy: 94.9047% MPKI: 0.91462 Average ROB Occupancy at Mispredict: 273.29

CPU 1 Branch Prediction Accuracy: 94.9079% MPKI: 0.913929 Average ROB Occupancy at Mispredict: 273.307

CPU 2 Branch Prediction Accuracy: 94.9053% MPKI: 0.914468 Average ROB Occupancy at Mispredict: 273.313

CPU 3 Branch Prediction Accuracy: 94.9066% MPKI: 0.914141 Average ROB Occupancy at Mispredict: 273.309

CPU 4 Branch Prediction Accuracy: 94.9074% MPKI: 0.913983 Average ROB Occupancy at Mispredict: 273.323

CPU 5 Branch Prediction Accuracy: 94.9062% MPKI: 0.914225 Average ROB Occupancy at Mispredict: 273.311

CPU 6 Branch Prediction Accuracy: 94.9057% MPKI: 0.914343 Average ROB Occupancy at Mispredict: 273.29

CPU 7 Branch Prediction Accuracy: 94.9077% MPKI: 0.913957 Average ROB Occupancy at Mispredict: 273.339

ChampSim completed all CPUs

Total Simulation Statistics (not including warmup)

CPU 0 cumulative IPC: 0.120852 instructions: 200714347 cycles: 1660822973
ITLB TOTAL     ACCESS: 30769357  HIT: 30769357  MISS:     0  HIT %:   100  MISS %:     0  AVERAGE MISS PENALTY: 0
ITLB LOAD      ACCESS: 30769357  HIT: 30769357  MISS:     0  HIT %:   100  MISS %:     0  AVERAGE MISS PENALTY: 0
ITLB RFO       ACCESS:     0  HIT:     0  MISS:     0  HIT %:     0  MISS %:     0  AVERAGE MISS PENALTY: 0
ITLB PREFETCH  ACCESS:     0  HIT:     0  MISS:     0  HIT %:     0  MISS %:     0  AVERAGE MISS PENALTY: 0
ITLB WRITEBACK ACCESS:     0  HIT:     0  MISS:     0  HIT %:     0  MISS %:     0  AVERAGE MISS PENALTY: 0

DTLB TOTAL     ACCESS: 40489338  HIT: 40214349  MISS: 274989  HIT %: 99.3208  MISS %: 0.679164  AVERAGE MISS PENALTY: 87.3446
DTLB LOAD      ACCESS: 19600935  HIT: 19563620  MISS: 37315  HIT %: 99.8096  MISS %: 0.190374  AVERAGE MISS PENALTY: 109.002
DTLB RFO       ACCESS: 20888403  HIT: 20650729  MISS: 237674  HIT %: 98.8622  MISS %: 1.13783  AVERAGE MISS PENALTY: 83.9443
DTLB PREFETCH  ACCESS:     0  HIT:     0  MISS:     0  HIT %:     0  MISS %:     0  AVERAGE MISS PENALTY: 0
DTLB WRITEBACK ACCESS:     0  HIT:     0  MISS:     0  HIT %:     0  MISS %:     0  AVERAGE MISS PENALTY: 0

STLB TOTAL     ACCESS: 274989  HIT: 125777  MISS: 149212  HIT %: 45.7389  MISS %: 54.2611  AVERAGE MISS PENALTY: 100
STLB LOAD      ACCESS: 37315  HIT:     0  MISS: 37315  HIT %:     0  MISS %:   100  AVERAGE MISS PENALTY: 100
STLB RFO       ACCESS: 237674  HIT: 125777  MISS: 111897  HIT %: 52.92  MISS %: 47.08  AVERAGE MISS PENALTY: 100
STLB PREFETCH  ACCESS:     0  HIT:     0  MISS:     0  HIT %:     0  MISS %:     0  AVERAGE MISS PENALTY: 0
STLB WRITEBACK ACCESS:     0  HIT:     0  MISS:     0  HIT %:     0  MISS %:     0  AVERAGE MISS PENALTY: 0

L1D TOTAL     ACCESS: 58999568  HIT: 43235907  MISS: 15763661  HIT %: 73.2817  MISS %: 26.7183  AVERAGE MISS PENALTY: 3.47393e+07
L1D LOAD      ACCESS: 16634183  HIT: 15078707  MISS: 1555476  HIT %: 90.6489  MISS %: 9.35108  AVERAGE MISS PENALTY: 3.52046e+08
L1D RFO       ACCESS: 34840029  HIT: 21474356  MISS: 13365673  HIT %: 61.637  MISS %: 38.363  AVERAGE MISS PENALTY: 1391.47
L1D PREFETCH  ACCESS: 7525356  HIT: 6682844  MISS: 842512  HIT %: 88.8044  MISS %: 11.1956  AVERAGE MISS PENALTY: 1191.1
L1D WRITEBACK ACCESS:     0  HIT:     0  MISS:     0  HIT %:     0  MISS %:     0  AVERAGE MISS PENALTY: 0

L1I TOTAL     ACCESS: 42492372  HIT: 42492372  MISS:     0  HIT %:   100  MISS %:     0  AVERAGE MISS PENALTY: 0
L1I LOAD      ACCESS: 42492372  HIT: 42492372  MISS:     0  HIT %:   100  MISS %:     0  AVERAGE MISS PENALTY: 0
L1I RFO       ACCESS:     0  HIT:     0  MISS:     0  HIT %:     0  MISS %:     0  AVERAGE MISS PENALTY: 0
L1I PREFETCH  ACCESS:     0  HIT:     0  MISS:     0  HIT %:     0  MISS %:     0  AVERAGE MISS PENALTY: 0
L1I WRITEBACK ACCESS:     0  HIT:     0  MISS:     0  HIT %:     0  MISS %:     0  AVERAGE MISS PENALTY: 0

L2C TOTAL     ACCESS: 29941348  HIT: 19413902  MISS: 10527446  HIT %: 64.8398  MISS %: 35.1602  AVERAGE MISS PENALTY: 8.67791e+07
L2C LOAD      ACCESS: 1547127  HIT: 264736  MISS: 1282391  HIT %: 17.1115  MISS %: 82.8885  AVERAGE MISS PENALTY: 7.12374e+08
L2C RFO       ACCESS: 13365672  HIT: 5230559  MISS: 8135113  HIT %: 39.1343  MISS %: 60.8657  AVERAGE MISS PENALTY: 2259.86
L2C PREFETCH  ACCESS: 1662873  HIT: 557037  MISS: 1105836  HIT %: 33.4985  MISS %: 66.5015  AVERAGE MISS PENALTY: 1861.41
L2C WRITEBACK ACCESS: 13365676  HIT: 13361570  MISS:  4106  HIT %: 99.9693  MISS %: 0.0307205  AVERAGE MISS PENALTY: 0


LLC0 TOTAL     ACCESS: 2331422  HIT: 928568  MISS: 1402854  HIT %: 39.8284  MISS %: 60.1716  AVERAGE MISS PENALTY: 2077.18
LLC0 LOAD      ACCESS: 65511  HIT:     0  MISS: 65511  HIT %:     0  MISS %:   100  AVERAGE MISS PENALTY: 2186.13
LLC0 RFO       ACCESS: 1016376  HIT: 118659  MISS: 897717  HIT %: 11.6747  MISS %: 88.3253  AVERAGE MISS PENALTY: 2492.58
LLC0 PREFETCH  ACCESS: 232817  HIT:     0  MISS: 232817  HIT %:     0  MISS %:   100  AVERAGE MISS PENALTY: 2289.93
LLC0 WRITEBACK ACCESS: 1016718  HIT: 809909  MISS: 206809  HIT %: 79.6592  MISS %: 20.3408  AVERAGE MISS PENALTY: 0

LLC1 TOTAL     ACCESS: 2332357  HIT: 927847  MISS: 1404510  HIT %: 39.7815  MISS %: 60.2185  AVERAGE MISS PENALTY: 2078.01
LLC1 LOAD      ACCESS: 49760  HIT:    11  MISS: 49749  HIT %: 0.0221061  MISS %: 99.9779  AVERAGE MISS PENALTY: 2186.05
LLC1 RFO       ACCESS: 1016800  HIT: 119228  MISS: 897572  HIT %: 11.7258  MISS %: 88.2742  AVERAGE MISS PENALTY: 2495.33
LLC1 PREFETCH  ACCESS: 248645  HIT:     0  MISS: 248645  HIT %:     0  MISS %:   100  AVERAGE MISS PENALTY: 2292.8
LLC1 WRITEBACK ACCESS: 1017152  HIT: 808608  MISS: 208544  HIT %: 79.4973  MISS %: 20.5027  AVERAGE MISS PENALTY: 0

LLC2 TOTAL     ACCESS: 2332413  HIT: 934477  MISS: 1397936  HIT %: 40.0648  MISS %: 59.9352  AVERAGE MISS PENALTY: 2066.41
LLC2 LOAD      ACCESS: 40259  HIT:     9  MISS: 40250  HIT %: 0.0223552  MISS %: 99.9776  AVERAGE MISS PENALTY: 2187.1
LLC2 RFO       ACCESS: 1016588  HIT: 119127  MISS: 897461  HIT %: 11.7183  MISS %: 88.2817  AVERAGE MISS PENALTY: 2439.35
LLC2 PREFETCH  ACCESS: 258703  HIT:   339  MISS: 258364  HIT %: 0.131038  MISS %: 99.869  AVERAGE MISS PENALTY: 2366.64
LLC2 WRITEBACK ACCESS: 1016863  HIT: 815002  MISS: 201861  HIT %: 80.1487  MISS %: 19.8513  AVERAGE MISS PENALTY: 0

LLC3 TOTAL     ACCESS: 2332820  HIT: 939208  MISS: 1393612  HIT %: 40.2606  MISS %: 59.7394  AVERAGE MISS PENALTY: 2075.5
LLC3 LOAD      ACCESS: 40210  HIT:    10  MISS: 40200  HIT %: 0.0248694  MISS %: 99.9751  AVERAGE MISS PENALTY: 2189.96
LLC3 RFO       ACCESS: 1016800  HIT: 119433  MISS: 897367  HIT %: 11.746  MISS %: 88.254  AVERAGE MISS PENALTY: 2443.59
LLC3 PREFETCH  ACCESS: 258732  HIT:   322  MISS: 258410  HIT %: 0.124453  MISS %: 99.8755  AVERAGE MISS PENALTY: 2366.82
LLC3 WRITEBACK ACCESS: 1017078  HIT: 819443  MISS: 197635  HIT %: 80.5684  MISS %: 19.4316  AVERAGE MISS PENALTY: 0

LLC4 TOTAL     ACCESS: 2332491  HIT: 938808  MISS: 1393683  HIT %: 40.2492  MISS %: 59.7508  AVERAGE MISS PENALTY: 2102.95
LLC4 LOAD      ACCESS: 37898  HIT:     0  MISS: 37898  HIT %:     0  MISS %:   100  AVERAGE MISS PENALTY: 2200.02
LLC4 RFO       ACCESS: 1016834  HIT: 119526  MISS: 897308  HIT %: 11.7547  MISS %: 88.2453  AVERAGE MISS PENALTY: 2507.86
LLC4 PREFETCH  ACCESS: 260573  HIT:    55  MISS: 260518  HIT %: 0.0211073  MISS %: 99.9789  AVERAGE MISS PENALTY: 2292.18
LLC4 WRITEBACK ACCESS: 1017186  HIT: 819227  MISS: 197959  HIT %: 80.5386  MISS %: 19.4614  AVERAGE MISS PENALTY: 0

LLC5 TOTAL     ACCESS: 2332541  HIT: 942919  MISS: 1389622  HIT %: 40.4245  MISS %: 59.5755  AVERAGE MISS PENALTY: 2104.4
LLC5 LOAD      ACCESS: 38777  HIT:     0  MISS: 38777  HIT %:     0  MISS %:   100  AVERAGE MISS PENALTY: 2176.56
LLC5 RFO       ACCESS: 1016863  HIT: 119613  MISS: 897250  HIT %: 11.7629  MISS %: 88.2371  AVERAGE MISS PENALTY: 2502.85
LLC5 PREFETCH  ACCESS: 259685  HIT:    46  MISS: 259639  HIT %: 0.0177138  MISS %: 99.9823  AVERAGE MISS PENALTY: 2288.71
LLC5 WRITEBACK ACCESS: 1017216  HIT: 823260  MISS: 193956  HIT %: 80.9327  MISS %: 19.0673  AVERAGE MISS PENALTY: 0

LLC6 TOTAL     ACCESS: 2332164  HIT: 941662  MISS: 1390502  HIT %: 40.3772  MISS %: 59.6228  AVERAGE MISS PENALTY: 2079.74
LLC6 LOAD      ACCESS: 39283  HIT:     0  MISS: 39283  HIT %:     0  MISS %:   100  AVERAGE MISS PENALTY: 2231.58
LLC6 RFO       ACCESS: 1016752  HIT: 119500  MISS: 897252  HIT %: 11.7531  MISS %: 88.2469  AVERAGE MISS PENALTY: 2446.62
LLC6 PREFETCH  ACCESS: 259046  HIT:     0  MISS: 259046  HIT %:     0  MISS %:   100  AVERAGE MISS PENALTY: 2350.85
LLC6 WRITEBACK ACCESS: 1017083  HIT: 822162  MISS: 194921  HIT %: 80.8353  MISS %: 19.1647  AVERAGE MISS PENALTY: 0

LLC7 TOTAL     ACCESS: 2331344  HIT: 940075  MISS: 1391269  HIT %: 40.3233  MISS %: 59.6767  AVERAGE MISS PENALTY: 2073.79
LLC7 LOAD      ACCESS: 39371  HIT:     0  MISS: 39371  HIT %:     0  MISS %:   100  AVERAGE MISS PENALTY: 2220.87
LLC7 RFO       ACCESS: 1016344  HIT: 119113  MISS: 897231  HIT %: 11.7198  MISS %: 88.2802  AVERAGE MISS PENALTY: 2441.92
LLC7 PREFETCH  ACCESS: 258957  HIT:     0  MISS: 258957  HIT %:     0  MISS %:   100  AVERAGE MISS PENALTY: 2343.23
LLC7 WRITEBACK ACCESS: 1016672  HIT: 820962  MISS: 195710  HIT %: 80.7499  MISS %: 19.2501  AVERAGE MISS PENALTY: 0

Total Rob stall cycles : 	1588266680
Total Load Rob Stall cycles : 	1524285411
Average Rob Stall cycles : 	 125
Average Load Rob Stall cycles : 	 815

CPU 1 cumulative IPC: 0.120452 instructions: 200048674 cycles: 1660822973
ITLB TOTAL     ACCESS: 30677092  HIT: 30677092  MISS:     0  HIT %:   100  MISS %:     0  AVERAGE MISS PENALTY: 0
ITLB LOAD      ACCESS: 30677092  HIT: 30677092  MISS:     0  HIT %:   100  MISS %:     0  AVERAGE MISS PENALTY: 0
ITLB RFO       ACCESS:     0  HIT:     0  MISS:     0  HIT %:     0  MISS %:     0  AVERAGE MISS PENALTY: 0
ITLB PREFETCH  ACCESS:     0  HIT:     0  MISS:     0  HIT %:     0  MISS %:     0  AVERAGE MISS PENALTY: 0
ITLB WRITEBACK ACCESS:     0  HIT:     0  MISS:     0  HIT %:     0  MISS %:     0  AVERAGE MISS PENALTY: 0

DTLB TOTAL     ACCESS: 40358156  HIT: 40084122  MISS: 274034  HIT %: 99.321  MISS %: 0.679005  AVERAGE MISS PENALTY: 87.4149
DTLB LOAD      ACCESS: 19539141  HIT: 19501955  MISS: 37186  HIT %: 99.8097  MISS %: 0.190315  AVERAGE MISS PENALTY: 109.005
DTLB RFO       ACCESS: 20819015  HIT: 20582167  MISS: 236848  HIT %: 98.8623  MISS %: 1.13765  AVERAGE MISS PENALTY: 84.0251
DTLB PREFETCH  ACCESS:     0  HIT:     0  MISS:     0  HIT %:     0  MISS %:     0  AVERAGE MISS PENALTY: 0
DTLB WRITEBACK ACCESS:     0  HIT:     0  MISS:     0  HIT %:     0  MISS %:     0  AVERAGE MISS PENALTY: 0

STLB TOTAL     ACCESS: 274034  HIT: 125338  MISS: 148696  HIT %: 45.7381  MISS %: 54.2619  AVERAGE MISS PENALTY: 100
STLB LOAD      ACCESS: 37186  HIT:     0  MISS: 37186  HIT %:     0  MISS %:   100  AVERAGE MISS PENALTY: 100
STLB RFO       ACCESS: 236848  HIT: 125338  MISS: 111510  HIT %: 52.9192  MISS %: 47.0808  AVERAGE MISS PENALTY: 100
STLB PREFETCH  ACCESS:     0  HIT:     0  MISS:     0  HIT %:     0  MISS %:     0  AVERAGE MISS PENALTY: 0
STLB WRITEBACK ACCESS:     0  HIT:     0  MISS:     0  HIT %:     0  MISS %:     0  AVERAGE MISS PENALTY: 0

L1D TOTAL     ACCESS: 58673790  HIT: 42964703  MISS: 15709087  HIT %: 73.2264  MISS %: 26.7736  AVERAGE MISS PENALTY: 3.45119e+07
L1D LOAD      ACCESS: 16537097  HIT: 14982613  MISS: 1554484  HIT %:  90.6  MISS %: 9.39998  AVERAGE MISS PENALTY: 3.48753e+08
L1D RFO       ACCESS: 34683407  HIT: 21364041  MISS: 13319366  HIT %: 61.5973  MISS %: 38.4027  AVERAGE MISS PENALTY: 1406.25
L1D PREFETCH  ACCESS: 7453286  HIT: 6618049  MISS: 835237  HIT %: 88.7937  MISS %: 11.2063  AVERAGE MISS PENALTY: 1187.56
L1D WRITEBACK ACCESS:     0  HIT:     0  MISS:     0  HIT %:     0  MISS %:     0  AVERAGE MISS PENALTY: 0

L1I TOTAL     ACCESS: 42360337  HIT: 42360337  MISS:     0  HIT %:   100  MISS %:     0  AVERAGE MISS PENALTY: 0
L1I LOAD      ACCESS: 42360337  HIT: 42360337  MISS:     0  HIT %:   100  MISS %:     0  AVERAGE MISS PENALTY: 0
L1I RFO       ACCESS:     0  HIT:     0  MISS:     0  HIT %:     0  MISS %:     0  AVERAGE MISS PENALTY: 0
L1I PREFETCH  ACCESS:     0  HIT:     0  MISS:     0  HIT %:     0  MISS %:     0  AVERAGE MISS PENALTY: 0
L1I WRITEBACK ACCESS:     0  HIT:     0  MISS:     0  HIT %:     0  MISS %:     0  AVERAGE MISS PENALTY: 0

L2C TOTAL     ACCESS: 29846063  HIT: 19296988  MISS: 10549075  HIT %: 64.6551  MISS %: 35.3449  AVERAGE MISS PENALTY: 8.60135e+07
L2C LOAD      ACCESS: 1546063  HIT: 269185  MISS: 1276878  HIT %: 17.411  MISS %: 82.589  AVERAGE MISS PENALTY: 7.10594e+08
L2C RFO       ACCESS: 13319366  HIT: 5170178  MISS: 8149188  HIT %: 38.817  MISS %: 61.183  AVERAGE MISS PENALTY: 2272.33
L2C PREFETCH  ACCESS: 1661267  HIT: 557980  MISS: 1103287  HIT %: 33.5876  MISS %: 66.4124  AVERAGE MISS PENALTY: 1858.44
L2C WRITEBACK ACCESS: 13319367  HIT: 13299645  MISS: 19722  HIT %: 99.8519  MISS %: 0.14807  AVERAGE MISS PENALTY: 0


LLC0 TOTAL     ACCESS: 2333527  HIT: 932535  MISS: 1400992  HIT %: 39.9625  MISS %: 60.0375  AVERAGE MISS PENALTY: 2091.22
LLC0 LOAD      ACCESS: 65234  HIT:     0  MISS: 65234  HIT %:     0  MISS %:   100  AVERAGE MISS PENALTY: 2183.98
LLC0 RFO       ACCESS: 1018154  HIT: 123201  MISS: 894953  HIT %: 12.1004  MISS %: 87.8996  AVERAGE MISS PENALTY: 2522.04
LLC0 PREFETCH  ACCESS: 232060  HIT:     0  MISS: 232060  HIT %:     0  MISS %:   100  AVERAGE MISS PENALTY: 2284.74
LLC0 WRITEBACK ACCESS: 1018079  HIT: 809334  MISS: 208745  HIT %: 79.4962  MISS %: 20.5038  AVERAGE MISS PENALTY: 0

LLC1 TOTAL     ACCESS: 2334306  HIT: 932377  MISS: 1401929  HIT %: 39.9424  MISS %: 60.0576  AVERAGE MISS PENALTY: 2092.67
LLC1 LOAD      ACCESS: 50055  HIT:    10  MISS: 50045  HIT %: 0.019978  MISS %: 99.98  AVERAGE MISS PENALTY: 2159.62
LLC1 RFO       ACCESS: 1018503  HIT: 123628  MISS: 894875  HIT %: 12.1382  MISS %: 87.8618  AVERAGE MISS PENALTY: 2525.39
LLC1 PREFETCH  ACCESS: 247316  HIT:     0  MISS: 247316  HIT %:     0  MISS %:   100  AVERAGE MISS PENALTY: 2287.7
LLC1 WRITEBACK ACCESS: 1018432  HIT: 808739  MISS: 209693  HIT %: 79.4102  MISS %: 20.5898  AVERAGE MISS PENALTY: 0

LLC2 TOTAL     ACCESS: 2334747  HIT: 939014  MISS: 1395733  HIT %: 40.2191  MISS %: 59.7809  AVERAGE MISS PENALTY: 2076.29
LLC2 LOAD      ACCESS: 40610  HIT:    14  MISS: 40596  HIT %: 0.0344743  MISS %: 99.9655  AVERAGE MISS PENALTY: 2169.96
LLC2 RFO       ACCESS: 1018413  HIT: 123845  MISS: 894568  HIT %: 12.1606  MISS %: 87.8394  AVERAGE MISS PENALTY: 2462.24
LLC2 PREFETCH  ACCESS: 257426  HIT:   446  MISS: 256980  HIT %: 0.173254  MISS %: 99.8267  AVERAGE MISS PENALTY: 2362.86
LLC2 WRITEBACK ACCESS: 1018298  HIT: 814709  MISS: 203589  HIT %: 80.0069  MISS %: 19.9931  AVERAGE MISS PENALTY: 0

LLC3 TOTAL     ACCESS: 2335062  HIT: 944680  MISS: 1390382  HIT %: 40.4563  MISS %: 59.5437  AVERAGE MISS PENALTY: 2086.26
LLC3 LOAD      ACCESS: 40215  HIT:    15  MISS: 40200  HIT %: 0.0372995  MISS %: 99.9627  AVERAGE MISS PENALTY: 2192.28
[...]
 TIMELY PREFETCHES:          0 LATE PREFETCHES: 0 DROPPED PREFETCHES: 0
LLC1 AVERAGE MISS LATENCY: 2081.88 cycles
LLC2 TOTAL     ACCESS: 2320848  HIT: 927301  MISS: 1393547  HIT %: 39.9553  MISS %: 60.0447  AVERAGE MISS PENALTY: 2072.17
LLC2 LOAD      ACCESS: 39924  HIT:    12  MISS: 39912  HIT %: 0.0300571  MISS %: 99.9699  AVERAGE MISS PENALTY: 2171.74
LLC2 RFO       ACCESS: 1011508  HIT: 117204  MISS: 894304  HIT %: 11.5871  MISS %: 88.4129  AVERAGE MISS PENALTY: 2451.73
LLC2 PREFETCH  ACCESS: 257884  HIT:   306  MISS: 257578  HIT %: 0.118658  MISS %: 99.8813  AVERAGE MISS PENALTY: 2361.98
LLC2 WRITEBACK ACCESS: 1011532  HIT: 809779  MISS: 201753  HIT %: 80.0547  MISS %: 19.9453  AVERAGE MISS PENALTY: 0
LLC2 PREFETCH  REQUESTED:     0  ISSUED:     0  USEFUL:     0  USELESS: 2063514
 USEFUL LOAD PREFETCHES:          0 PREFETCH ISSUED TO LOWER LEVEL:  667464073  ACCURACY: 0
 TIMELY PREFETCHES:          0 LATE PREFETCHES: 0 DROPPED PREFETCHES: 0
LLC2 AVERAGE MISS LATENCY: 2072.17 cycles
LLC3 TOTAL     ACCESS: 2320431  HIT: 931822  MISS: 1388609  HIT %: 40.1573  MISS %: 59.8427  AVERAGE MISS PENALTY: 2084.26
LLC3 LOAD      ACCESS: 40051  HIT:     7  MISS: 40044  HIT %: 0.0174777  MISS %: 99.9825  AVERAGE MISS PENALTY: 2190.74
LLC3 RFO       ACCESS: 1011297  HIT: 117143  MISS: 894154  HIT %: 11.5834  MISS %: 88.4166  AVERAGE MISS PENALTY: 2457.44
LLC3 PREFETCH  ACCESS: 257753  HIT:   310  MISS: 257443  HIT %: 0.12027  MISS %: 99.8797  AVERAGE MISS PENALTY: 2366.19
LLC3 WRITEBACK ACCESS: 1011330  HIT: 814362  MISS: 196968  HIT %: 80.5239  MISS %: 19.4761  AVERAGE MISS PENALTY: 0
LLC3 PREFETCH  REQUESTED:     0  ISSUED:     0  USEFUL:    20  USELESS: 2064402
 USEFUL LOAD PREFETCHES:         20 PREFETCH ISSUED TO LOWER LEVEL:  668673058  ACCURACY: 2.991e-06
 TIMELY PREFETCHES:         20 LATE PREFETCHES: 0 DROPPED PREFETCHES: 0
LLC3 AVERAGE MISS LATENCY: 2084.26 cycles
LLC4 TOTAL     ACCESS: 2320502  HIT: 930536  MISS: 1389966  HIT %: 40.1006  MISS %: 59.8994  AVERAGE MISS PENALTY: 2106.69
LLC4 LOAD      ACCESS: 37934  HIT:     0  MISS: 37934  HIT %:     0  MISS %:   100  AVERAGE MISS PENALTY: 2198.42
LLC4 RFO       ACCESS: 1011539  HIT: 117464  MISS: 894075  HIT %: 11.6124  MISS %: 88.3876  AVERAGE MISS PENALTY: 2519
LLC4 PREFETCH  ACCESS: 259388  HIT:    24  MISS: 259364  HIT %: 0.00925255  MISS %: 99.9907  AVERAGE MISS PENALTY: 2285.06
LLC4 WRITEBACK ACCESS: 1011641  HIT: 813048  MISS: 198593  HIT %: 80.3692  MISS %: 19.6308  AVERAGE MISS PENALTY: 0
LLC4 PREFETCH  REQUESTED:     0  ISSUED:     0  USEFUL:     0  USELESS: 2079184
 USEFUL LOAD PREFETCHES:          0 PREFETCH ISSUED TO LOWER LEVEL:  760871297  ACCURACY: 0
 TIMELY PREFETCHES:          0 LATE PREFETCHES: 0 DROPPED PREFETCHES: 0
LLC4 AVERAGE MISS LATENCY: 2106.69 cycles
LLC5 TOTAL     ACCESS: 2320627  HIT: 934774  MISS: 1385853  HIT %: 40.2811  MISS %: 59.7189  AVERAGE MISS PENALTY: 2110.22
LLC5 LOAD      ACCESS: 38745  HIT:     0  MISS: 38745  HIT %:     0  MISS %:   100  AVERAGE MISS PENALTY: 2187.23
LLC5 RFO       ACCESS: 1011587  HIT: 117409  MISS: 894178  HIT %: 11.6064  MISS %: 88.3936  AVERAGE MISS PENALTY: 2514.74
LLC5 PREFETCH  ACCESS: 258579  HIT:    20  MISS: 258559  HIT %: 0.00773458  MISS %: 99.9923  AVERAGE MISS PENALTY: 2286.09
LLC5 WRITEBACK ACCESS: 1011716  HIT: 817345  MISS: 194371  HIT %: 80.788  MISS %: 19.212  AVERAGE MISS PENALTY: 0
LLC5 PREFETCH  REQUESTED:     0  ISSUED:     0  USEFUL:     0  USELESS: 2074086
 USEFUL LOAD PREFETCHES:          0 PREFETCH ISSUED TO LOWER LEVEL:  756949683  ACCURACY: 0
 TIMELY PREFETCHES:          0 LATE PREFETCHES: 0 DROPPED PREFETCHES: 0
LLC5 AVERAGE MISS LATENCY: 2110.22 cycles
LLC6 TOTAL     ACCESS: 2319256  HIT: 933091  MISS: 1386165  HIT %: 40.2323  MISS %: 59.7677  AVERAGE MISS PENALTY: 2085.66
LLC6 LOAD      ACCESS: 39349  HIT:     0  MISS: 39349  HIT %:     0  MISS %:   100  AVERAGE MISS PENALTY: 2212.81
LLC6 RFO       ACCESS: 1010976  HIT: 116958  MISS: 894018  HIT %: 11.5688  MISS %: 88.4312  AVERAGE MISS PENALTY: 2458.29
LLC6 PREFETCH  ACCESS: 257878  HIT:     0  MISS: 257878  HIT %:     0  MISS %:   100  AVERAGE MISS PENALTY: 2350.87
LLC6 WRITEBACK ACCESS: 1011053  HIT: 816133  MISS: 194920  HIT %: 80.7211  MISS %: 19.2789  AVERAGE MISS PENALTY: 0
LLC6 PREFETCH  REQUESTED:     0  ISSUED:     0  USEFUL:     0  USELESS: 2068529
 USEFUL LOAD PREFETCHES:          0 PREFETCH ISSUED TO LOWER LEVEL: 1101763783  ACCURACY: 0
 TIMELY PREFETCHES:          0 LATE PREFETCHES: 0 DROPPED PREFETCHES: 0
LLC6 AVERAGE MISS LATENCY: 2085.66 cycles
LLC7 TOTAL     ACCESS: 2319967  HIT: 933121  MISS: 1386846  HIT %: 40.2213  MISS %: 59.7787  AVERAGE MISS PENALTY: 2079.4
LLC7 LOAD      ACCESS: 39380  HIT:     0  MISS: 39380  HIT %:     0  MISS %:   100  AVERAGE MISS PENALTY: 2203.29
LLC7 RFO       ACCESS: 1011309  HIT: 117257  MISS: 894052  HIT %: 11.5946  MISS %: 88.4054  AVERAGE MISS PENALTY: 2454.58
LLC7 PREFETCH  ACCESS: 257848  HIT:     0  MISS: 257848  HIT %:     0  MISS %:   100  AVERAGE MISS PENALTY: 2336.75
LLC7 WRITEBACK ACCESS: 1011430  HIT: 815864  MISS: 195566  HIT %: 80.6644  MISS %: 19.3356  AVERAGE MISS PENALTY: 0
LLC7 PREFETCH  REQUESTED:     0  ISSUED:     0  USEFUL:     0  USELESS: 2068399
 USEFUL LOAD PREFETCHES:          0 PREFETCH ISSUED TO LOWER LEVEL: 1109839763  ACCURACY: 0
 TIMELY PREFETCHES:          0 LATE PREFETCHES: 0 DROPPED PREFETCHES: 0
LLC7 AVERAGE MISS LATENCY: 2079.4 cycles
ROI Average ROB Stall Cycles:	125.933
ROI Total ROB Stalls Cycles:	1584054286
ROI TOTAL ROB counter      :	12578523
ROI Average Load ROB Stall Cycles:	815.909
ROI Total Load ROB Stalls Cycle  :	1520132684
ROI Total Load ROB stalls Counter:	1863116
Major fault: 0 Minor fault: 128040

CPU 7 cumulative IPC: 0.120422 instructions: 200000000 cycles: 1660822974
ITLB TOTAL     ACCESS: 30669642  HIT: 30669642  MISS:     0  HIT %:   100  MISS %:     0  AVERAGE MISS PENALTY: 0
ITLB LOAD      ACCESS: 30669642  HIT: 30669642  MISS:     0  HIT %:   100  MISS %:     0  AVERAGE MISS PENALTY: 0
ITLB RFO       ACCESS:     0  HIT:     0  MISS:     0  HIT %:     0  MISS %:     0  AVERAGE MISS PENALTY: 0
ITLB PREFETCH  ACCESS:     0  HIT:     0  MISS:     0  HIT %:     0  MISS %:     0  AVERAGE MISS PENALTY: 0
ITLB WRITEBACK ACCESS:     0  HIT:     0  MISS:     0  HIT %:     0  MISS %:     0  AVERAGE MISS PENALTY: 0
ITLB PREFETCH  REQUESTED:     0  ISSUED:     0  USEFUL:     0  USELESS:     0
 USEFUL LOAD PREFETCHES:          0 PREFETCH ISSUED TO LOWER LEVEL:          0  ACCURACY: -nan
 TIMELY PREFETCHES:          0 LATE PREFETCHES: 0 DROPPED PREFETCHES: 0
ITLB AVERAGE MISS LATENCY: -nan cycles
DTLB TOTAL     ACCESS: 40345621  HIT: 40071651  MISS: 273970  HIT %: 99.3209  MISS %: 0.679058  AVERAGE MISS PENALTY: 87.3727
DTLB LOAD      ACCESS: 19532899  HIT: 19495722  MISS: 37177  HIT %: 99.8097  MISS %: 0.19033  AVERAGE MISS PENALTY: 109.002
DTLB RFO       ACCESS: 20812722  HIT: 20575929  MISS: 236793  HIT %: 98.8623  MISS %: 1.13773  AVERAGE MISS PENALTY: 83.9768
DTLB PREFETCH  ACCESS:     0  HIT:     0  MISS:     0  HIT %:     0  MISS %:     0  AVERAGE MISS PENALTY: 0
DTLB WRITEBACK ACCESS:     0  HIT:     0  MISS:     0  HIT %:     0  MISS %:     0  AVERAGE MISS PENALTY: 0
DTLB PREFETCH  REQUESTED:     0  ISSUED:     0  USEFUL:     0  USELESS:     0
 USEFUL LOAD PREFETCHES:          0 PREFETCH ISSUED TO LOWER LEVEL:          0  ACCURACY: -nan
 TIMELY PREFETCHES:          0 LATE PREFETCHES: 0 DROPPED PREFETCHES: 0
DTLB AVERAGE MISS LATENCY: 87.3727 cycles
STLB TOTAL     ACCESS: 273970  HIT: 125310  MISS: 148660  HIT %: 45.7386  MISS %: 54.2614  AVERAGE MISS PENALTY: 100
STLB LOAD      ACCESS: 37177  HIT:     0  MISS: 37177  HIT %:     0  MISS %:   100  AVERAGE MISS PENALTY: 100
STLB RFO       ACCESS: 236793  HIT: 125310  MISS: 111483  HIT %: 52.9196  MISS %: 47.0804  AVERAGE MISS PENALTY: 100
STLB PREFETCH  ACCESS:     0  HIT:     0  MISS:     0  HIT %:     0  MISS %:     0  AVERAGE MISS PENALTY: 0
STLB WRITEBACK ACCESS:     0  HIT:     0  MISS:     0  HIT %:     0  MISS %:     0  AVERAGE MISS PENALTY: 0
STLB PREFETCH  REQUESTED:     0  ISSUED:     0  USEFUL:     0  USELESS:     0
 USEFUL LOAD PREFETCHES:          0 PREFETCH ISSUED TO LOWER LEVEL:          0  ACCURACY: -nan
 TIMELY PREFETCHES:          0 LATE PREFETCHES: 0 DROPPED PREFETCHES: 0
STLB AVERAGE MISS LATENCY: 100 cycles
L1D TOTAL     ACCESS: 58716890  HIT: 43011591  MISS: 15705299  HIT %: 73.2525  MISS %: 26.7475  AVERAGE MISS PENALTY: 3.45292e+07
L1D LOAD      ACCESS: 16552921  HIT: 15000434  MISS: 1552487  HIT %: 90.6211  MISS %: 9.37893  AVERAGE MISS PENALTY: 3.49293e+08
L1D RFO       ACCESS: 34694778  HIT: 21378561  MISS: 13316217  HIT %: 61.619  MISS %: 38.381  AVERAGE MISS PENALTY: 1403.41
L1D PREFETCH  ACCESS: 7469191  HIT: 6632596  MISS: 836595  HIT %: 88.7994  MISS %: 11.2006  AVERAGE MISS PENALTY: 1188.21
L1D WRITEBACK ACCESS:     0  HIT:     0  MISS:     0  HIT %:     0  MISS %:     0  AVERAGE MISS PENALTY: 0
L1D PREFETCH  REQUESTED: 26209161  ISSUED: 22077241  USEFUL: 825589  USELESS: 11009
 USEFUL LOAD PREFETCHES:     825589 PREFETCH ISSUED TO LOWER LEVEL: 1935862033  ACCURACY: 0.0426471
 TIMELY PREFETCHES:     825589 LATE PREFETCHES: 1824556 DROPPED PREFETCHES: 4131920
L1D AVERAGE MISS LATENCY: 1413.24 cycles
L1I TOTAL     ACCESS: 42351431  HIT: 42351431  MISS:     0  HIT %:   100  MISS %:     0  AVERAGE MISS PENALTY: 0
L1I LOAD      ACCESS: 42351431  HIT: 42351431  MISS:     0  HIT %:   100  MISS %:     0  AVERAGE MISS PENALTY: 0
L1I RFO       ACCESS:     0  HIT:     0  MISS:     0  HIT %:     0  MISS %:     0  AVERAGE MISS PENALTY: 0
L1I PREFETCH  ACCESS:     0  HIT:     0  MISS:     0  HIT %:     0  MISS %:     0  AVERAGE MISS PENALTY: 0
L1I WRITEBACK ACCESS:     0  HIT:     0  MISS:     0  HIT %:     0  MISS %:     0  AVERAGE MISS PENALTY: 0
L1I PREFETCH  REQUESTED:     0  ISSUED:     0  USEFUL:     0  USELESS:     0
 USEFUL LOAD PREFETCHES:          0 PREFETCH ISSUED TO LOWER LEVEL:          0  ACCURACY: -nan
 TIMELY PREFETCHES:          0 LATE PREFETCHES: 0 DROPPED PREFETCHES: 0
L1I AVERAGE MISS LATENCY: -nan cycles
L2C TOTAL     ACCESS: 29835108  HIT: 19377882  MISS: 10457226  HIT %: 64.9499  MISS %: 35.0501  AVERAGE MISS PENALTY: 8.68052e+07
L2C LOAD      ACCESS: 1544056  HIT: 267287  MISS: 1276769  HIT %: 17.3107  MISS %: 82.6893  AVERAGE MISS PENALTY: 7.10952e+08
L2C RFO       ACCESS: 13316213  HIT: 5246049  MISS: 8070164  HIT %: 39.396  MISS %: 60.604  AVERAGE MISS PENALTY: 2289.34
L2C PREFETCH  ACCESS: 1658623  HIT: 555915  MISS: 1102708  HIT %: 33.5167  MISS %: 66.4833  AVERAGE MISS PENALTY: 1858.19
L2C WRITEBACK ACCESS: 13316216  HIT: 13308631  MISS:  7585  HIT %: 99.943  MISS %: 0.0569606  AVERAGE MISS PENALTY: 0
L2C PREFETCH  REQUESTED: 4158261  ISSUED: 4158248  USEFUL: 267241  USELESS: 837735
 USEFUL LOAD PREFETCHES:     267241 PREFETCH ISSUED TO LOWER LEVEL:    4143104  ACCURACY: 6.45026
 TIMELY PREFETCHES:     267241 LATE PREFETCHES: 1654750 DROPPED PREFETCHES: 13
L2C AVERAGE MISS LATENCY: 2192.23 cycles
LLC0 TOTAL     ACCESS: 2314272  HIT: 911279  MISS: 1402993  HIT %: 39.3765  MISS %: 60.6235  AVERAGE MISS PENALTY: 2083.3
LLC0 LOAD      ACCESS: 65230  HIT:     0  MISS: 65230  HIT %:     0  MISS %:   100  AVERAGE MISS PENALTY: 2188.07
LLC0 RFO       ACCESS: 1008465  HIT: 113846  MISS: 894619  HIT %: 11.289  MISS %: 88.711  AVERAGE MISS PENALTY: 2515.2
LLC0 PREFETCH  ACCESS: 231994  HIT:     0  MISS: 231994  HIT %:     0  MISS %:   100  AVERAGE MISS PENALTY: 2284.45
LLC0 WRITEBACK ACCESS: 1008583  HIT: 797433  MISS: 211150  HIT %: 79.0647  MISS %: 20.9353  AVERAGE MISS PENALTY: 0
LLC0 PREFETCH  REQUESTED:     0  ISSUED:     0  USEFUL:     0  USELESS: 1861030
 USEFUL LOAD PREFETCHES:          0 PREFETCH ISSUED TO LOWER LEVEL:  561184243  ACCURACY: 0
 TIMELY PREFETCHES:          0 LATE PREFETCHES: 0 DROPPED PREFETCHES: 0
LLC0 AVERAGE MISS LATENCY: 2083.3 cycles
Deadblocks : 479026 Deadblock percentage : 734.365

LLC1 TOTAL     ACCESS: 2314216  HIT: 910379  MISS: 1403837  HIT %: 39.3385  MISS %: 60.6615  AVERAGE MISS PENALTY: 2086.24
LLC1 LOAD      ACCESS: 49818  HIT:    11  MISS: 49807  HIT %: 0.0220804  MISS %: 99.9779  AVERAGE MISS PENALTY: 2177.38
LLC1 RFO       ACCESS: 1008378  HIT: 113829  MISS: 894549  HIT %: 11.2883  MISS %: 88.7117  AVERAGE MISS PENALTY: 2520.3
LLC1 PREFETCH  ACCESS: 247481  HIT:     0  MISS: 247481  HIT %:     0  MISS %:   100  AVERAGE MISS PENALTY: 2286.07
LLC1 WRITEBACK ACCESS: 1008539  HIT: 796539  MISS: 212000  HIT %: 78.9795  MISS %: 21.0205  AVERAGE MISS PENALTY: 0
LLC1 PREFETCH  REQUESTED:     0  ISSUED:     0  USEFUL:     0  USELESS: 1985404
 USEFUL LOAD PREFETCHES:          0 PREFETCH ISSUED TO LOWER LEVEL:  592784201  ACCURACY: 0
 TIMELY PREFETCHES:          0 LATE PREFETCHES: 0 DROPPED PREFETCHES: 0
LLC1 AVERAGE MISS LATENCY: 2086.24 cycles
LLC2 TOTAL     ACCESS: 2314863  HIT: 917988  MISS: 1396875  HIT %: 39.6563  MISS %: 60.3437  AVERAGE MISS PENALTY: 2072.11
LLC2 LOAD      ACCESS: 40083  HIT:    10  MISS: 40073  HIT %: 0.0249482  MISS %: 99.9751  AVERAGE MISS PENALTY: 2175.79
LLC2 RFO       ACCESS: 1008458  HIT: 114126  MISS: 894332  HIT %: 11.3169  MISS %: 88.6831  AVERAGE MISS PENALTY: 2457.97
LLC2 PREFETCH  ACCESS: 257791  HIT:   353  MISS: 257438  HIT %: 0.136933  MISS %: 99.8631  AVERAGE MISS PENALTY: 2365.79
LLC2 WRITEBACK ACCESS: 1008531  HIT: 803499  MISS: 205032  HIT %: 79.6702  MISS %: 20.3298  AVERAGE MISS PENALTY: 0
LLC2 PREFETCH  REQUESTED:     0  ISSUED:     0  USEFUL:     0  USELESS: 2063514
 USEFUL LOAD PREFETCHES:          0 PREFETCH ISSUED TO LOWER LEVEL:  667464073  ACCURACY: 0
 TIMELY PREFETCHES:          0 LATE PREFETCHES: 0 DROPPED PREFETCHES: 0
LLC2 AVERAGE MISS LATENCY: 2072.11 cycles
LLC3 TOTAL     ACCESS: 2315779  HIT: 923572  MISS: 1392207  HIT %: 39.8817  MISS %: 60.1183  AVERAGE MISS PENALTY: 2081.59
LLC3 LOAD      ACCESS: 39913  HIT:     5  MISS: 39908  HIT %: 0.0125272  MISS %: 99.9875  AVERAGE MISS PENALTY: 2186.94
LLC3 RFO       ACCESS: 1008930  HIT: 114637  MISS: 894293  HIT %: 11.3622  MISS %: 88.6378  AVERAGE MISS PENALTY: 2461.73
LLC3 PREFETCH  ACCESS: 257952  HIT:   360  MISS: 257592  HIT %: 0.139561  MISS %: 99.8604  AVERAGE MISS PENALTY: 2365.04
LLC3 WRITEBACK ACCESS: 1008984  HIT: 808570  MISS: 200414  HIT %: 80.137  MISS %: 19.863  AVERAGE MISS PENALTY: 0
LLC3 PREFETCH  REQUESTED:     0  ISSUED:     0  USEFUL:    20  USELESS: 2064402
 USEFUL LOAD PREFETCHES:         20 PREFETCH ISSUED TO LOWER LEVEL:  668673058  ACCURACY: 2.991e-06
 TIMELY PREFETCHES:         20 LATE PREFETCHES: 0 DROPPED PREFETCHES: 0
LLC3 AVERAGE MISS LATENCY: 2081.59 cycles
LLC4 TOTAL     ACCESS: 2314932  HIT: 922474  MISS: 1392458  HIT %: 39.8489  MISS %: 60.1511  AVERAGE MISS PENALTY: 2114.11
LLC4 LOAD      ACCESS: 38253  HIT:     0  MISS: 38253  HIT %:     0  MISS %:   100  AVERAGE MISS PENALTY: 2185.58
LLC4 RFO       ACCESS: 1008703  HIT: 114488  MISS: 894215  HIT %: 11.35  MISS %: 88.65  AVERAGE MISS PENALTY: 2535.77
LLC4 PREFETCH  ACCESS: 259135  HIT:    58  MISS: 259077  HIT %: 0.0223822  MISS %: 99.9776  AVERAGE MISS PENALTY: 2287.68
LLC4 WRITEBACK ACCESS: 1008841  HIT: 807928  MISS: 200913  HIT %: 80.0848  MISS %: 19.9152  AVERAGE MISS PENALTY: 0
LLC4 PREFETCH  REQUESTED:     0  ISSUED:     0  USEFUL:     0  USELESS: 2079184
 USEFUL LOAD PREFETCHES:          0 PREFETCH ISSUED TO LOWER LEVEL:  760871297  ACCURACY: 0
 TIMELY PREFETCHES:          0 LATE PREFETCHES: 0 DROPPED PREFETCHES: 0
LLC4 AVERAGE MISS LATENCY: 2114.11 cycles
LLC5 TOTAL     ACCESS: 2315475  HIT: 926715  MISS: 1388760  HIT %: 40.0227  MISS %: 59.9773  AVERAGE MISS PENALTY: 2112.9
LLC5 LOAD      ACCESS: 38783  HIT:     0  MISS: 38783  HIT %:     0  MISS %:   100  AVERAGE MISS PENALTY: 2173.56
LLC5 RFO       ACCESS: 1008987  HIT: 114834  MISS: 894153  HIT %: 11.3811  MISS %: 88.6189  AVERAGE MISS PENALTY: 2527.26
LLC5 PREFETCH  ACCESS: 258595  HIT:    55  MISS: 258540  HIT %: 0.0212688  MISS %: 99.9787  AVERAGE MISS PENALTY: 2283.06
LLC5 WRITEBACK ACCESS: 1009110  HIT: 811826  MISS: 197284  HIT %: 80.4497  MISS %: 19.5503  AVERAGE MISS PENALTY: 0
LLC5 PREFETCH  REQUESTED:     0  ISSUED:     0  USEFUL:     0  USELESS: 2074086
 USEFUL LOAD PREFETCHES:          0 PREFETCH ISSUED TO LOWER LEVEL:  756949683  ACCURACY: 0
 TIMELY PREFETCHES:          0 LATE PREFETCHES: 0 DROPPED PREFETCHES: 0
LLC5 AVERAGE MISS LATENCY: 2112.9 cycles
LLC6 TOTAL     ACCESS: 2314127  HIT: 924722  MISS: 1389405  HIT %: 39.9599  MISS %: 60.0401  AVERAGE MISS PENALTY: 2084.72
LLC6 LOAD      ACCESS: 39232  HIT:     0  MISS: 39232  HIT %:     0  MISS %:   100  AVERAGE MISS PENALTY: 2205.78
LLC6 RFO       ACCESS: 1008391  HIT: 114246  MISS: 894145  HIT %: 11.3295  MISS %: 88.6705  AVERAGE MISS PENALTY: 2465.87
LLC6 PREFETCH  ACCESS: 257993  HIT:     0  MISS: 257993  HIT %:     0  MISS %:   100  AVERAGE MISS PENALTY: 2345.55
LLC6 WRITEBACK ACCESS: 1008511  HIT: 810476  MISS: 198035  HIT %: 80.3636  MISS %: 19.6364  AVERAGE MISS PENALTY: 0
LLC6 PREFETCH  REQUESTED:     0  ISSUED:     0  USEFUL:     0  USELESS: 2068529
 USEFUL LOAD PREFETCHES:          0 PREFETCH ISSUED TO LOWER LEVEL: 1101763783  ACCURACY: 0
 TIMELY PREFETCHES:          0 LATE PREFETCHES: 0 DROPPED PREFETCHES: 0
LLC6 AVERAGE MISS LATENCY: 2084.72 cycles
LLC7 TOTAL     ACCESS: 2313712  HIT: 923495  MISS: 1390217  HIT %: 39.914  MISS %: 60.086  AVERAGE MISS PENALTY: 2079.29
LLC7 LOAD      ACCESS: 39346  HIT:     0  MISS: 39346  HIT %:     0  MISS %:   100  AVERAGE MISS PENALTY: 2202.24
LLC7 RFO       ACCESS: 1008182  HIT: 114177  MISS: 894005  HIT %: 11.325  MISS %: 88.675  AVERAGE MISS PENALTY: 2463.62
LLC7 PREFETCH  ACCESS: 257878  HIT:     0  MISS: 257878  HIT %:     0  MISS %:   100  AVERAGE MISS PENALTY: 2332.59
LLC7 WRITEBACK ACCESS: 1008306  HIT: 809318  MISS: 198988  HIT %: 80.2651  MISS %: 19.7349  AVERAGE MISS PENALTY: 0
LLC7 PREFETCH  REQUESTED:     0  ISSUED:     0  USEFUL:     0  USELESS: 2068399
 USEFUL LOAD PREFETCHES:          0 PREFETCH ISSUED TO LOWER LEVEL: 1109839763  ACCURACY: 0
 TIMELY PREFETCHES:          0 LATE PREFETCHES: 0 DROPPED PREFETCHES: 0
LLC7 AVERAGE MISS LATENCY: 2079.29 cycles
ROI Average ROB Stall Cycles:	126.118
ROI Total ROB Stalls Cycles:	1588014184
ROI TOTAL ROB counter      :	12591521
ROI Average Load ROB Stall Cycles:	817.053
ROI Total Load ROB Stalls Cycle  :	1524035495
ROI Total Load ROB stalls Counter:	1865284
Major fault: 0 Minor fault: 127858








Interconnect Stats 
LINK 0 BW : 0LINK 1 BW : 0LINK 2 BW : 0LINK 3 BW : 0LINK 4 BW : 0LINK 5 BW : 0LINK 6 BW : 0LINK 7 BW : 0
DRAM Statistics
 CHANNEL 0
 RQ ROW_BUFFER_HIT: 13498868  ROW_BUFFER_MISS: 24695412
 DBUS_CONGESTED: 94383775
 WQ ROW_BUFFER_HIT: 1040702  ROW_BUFFER_MISS: 28128158  FULL:   165

 CHANNEL 1
 RQ ROW_BUFFER_HIT: 13491889  ROW_BUFFER_MISS: 24700848
 DBUS_CONGESTED: 94383775
 WQ ROW_BUFFER_HIT: 1040773  ROW_BUFFER_MISS: 28116561  FULL:     0

 AVG_CONGESTED_CYCLE: 6
DRAM PAGES: 2097152
Allocated PAGES: 1023906
L2C destructor called
L1D destructor called
L1I destructor called
STLB destructor called
DTLB destructor called
ITLB destructor called
L2C destructor called
L1D destructor called
L1I destructor called
STLB destructor called
DTLB destructor called
ITLB destructor called
L2C destructor called
L1D destructor called
L1I destructor called
STLB destructor called
DTLB destructor called
ITLB destructor called
L2C destructor called
L1D destructor called
L1I destructor called
STLB destructor called
DTLB destructor called
ITLB destructor called
L2C destructor called
L1D destructor called
L1I destructor called
STLB destructor called
DTLB destructor called
ITLB destructor called
L2C destructor called
L1D destructor called
L1I destructor called
STLB destructor called
DTLB destructor called
ITLB destructor called
L2C destructor called
L1D destructor called
L1I destructor called
STLB destructor called
DTLB destructor called
ITLB destructor called
L2C destructor called
L1D destructor called
L1I destructor called
STLB destructor called
DTLB destructor called
ITLB destructor called
