
*** ChampSim Multicore Out-of-Order Simulator ***

Warmup Instructions: 200000000
Simulation Instructions: 200000000
Number of CPUs: 8
threads:1

L1I Configuration:
L1I_SET:64
L1I_WAY:8
L1I_RQ_SIZE:64
L1I_WQ_SIZE:64
L1I_PQ_SIZE:8
L1I_MSHR_SIZE:8

L1D Configuration:
L1D_SET:64
L1D_WAY:12
L1D_RQ_SIZE:64
L1D_WQ_SIZE:64
L1D_PQ_SIZE:8
L1D_MSHR_SIZE:16

L2C Configuration:
L2C_SET:1024
L2C_WAY:8
L2C_RQ_SIZE:32
L2C_WQ_SIZE:32
L2C_PQ_SIZE:16
L2C_MSHR_SIZE:32

LLC Configuration:
LLC_SET:2048
LLC_WAY:16
LLC SLICES:8
LLC_RQ_SIZE:64
LLC_WQ_SIZE:64
LLC_PQ_SIZE:32
LLC_MSHR_SIZE:64

Interconnect OFF
Attacker deprioritize is: OFF
Off-chip DRAM Size: 8192 MB Channels: 2 Width: 64-bit Data Rate: 3200 MT/s
PAGE SIZE in KB: 4.000000 
PAGE SIZE in MB: 0.003906 
PAGE offset in bits: 12 
CEASER-S_LLC:0
MIRAGE : 0
CEASER_LATENCY:3
REMAP : OFF
Partitions : 1
Multi-Step : OFF
BFS : OFF

CPU 0 runs /home/anubhav/spec_2017/620.omnetpp_s-141B.champsimtrace.xz
CPU 1 runs /home/anubhav/spec_2017/620.omnetpp_s-141B.champsimtrace.xz
CPU 2 runs /home/anubhav/spec_2017/620.omnetpp_s-141B.champsimtrace.xz
CPU 3 runs /home/anubhav/spec_2017/620.omnetpp_s-141B.champsimtrace.xz
CPU 4 runs /home/anubhav/spec_2017/620.omnetpp_s-141B.champsimtrace.xz
CPU 5 runs /home/anubhav/spec_2017/620.omnetpp_s-141B.champsimtrace.xz
CPU 6 runs /home/anubhav/spec_2017/620.omnetpp_s-141B.champsimtrace.xz
CPU 7 runs /home/anubhav/spec_2017/620.omnetpp_s-141B.champsimtrace.xz
CPU 0 Bimodal branch predictor
Initialize Hawkeye state
Initialize Hawkeye state
Initialize Hawkeye state
Initialize Hawkeye state
Initialize Hawkeye state
Initialize Hawkeye state
Initialize Hawkeye state
Initialize Hawkeye state
CPU 1 Bimodal branch predictor
Initialize Hawkeye state
Initialize Hawkeye state
Initialize Hawkeye state
Initialize Hawkeye state
Initialize Hawkeye state
Initialize Hawkeye state
Initialize Hawkeye state
Initialize Hawkeye state
CPU 2 Bimodal branch predictor
Initialize Hawkeye state
Initialize Hawkeye state
Initialize Hawkeye state
Initialize Hawkeye state
Initialize Hawkeye state
Initialize Hawkeye state
Initialize Hawkeye state
Initialize Hawkeye state
CPU 3 Bimodal branch predictor
Initialize Hawkeye state
Initialize Hawkeye state
Initialize Hawkeye state
Initialize Hawkeye state
Initialize Hawkeye state
Initialize Hawkeye state
Initialize Hawkeye state
Initialize Hawkeye state
CPU 4 Bimodal branch predictor
Initialize Hawkeye state
Initialize Hawkeye state
Initialize Hawkeye state
Initialize Hawkeye state
Initialize Hawkeye state
Initialize Hawkeye state
Initialize Hawkeye state
Initialize Hawkeye state
CPU 5 Bimodal branch predictor
Initialize Hawkeye state
Initialize Hawkeye state
Initialize Hawkeye state
Initialize Hawkeye state
Initialize Hawkeye state
Initialize Hawkeye state
Initialize Hawkeye state
Initialize Hawkeye state
CPU 6 Bimodal branch predictor
Initialize Hawkeye state
Initialize Hawkeye state
Initialize Hawkeye state
Initialize Hawkeye state
Initialize Hawkeye state
Initialize Hawkeye state
Initialize Hawkeye state
Initialize Hawkeye state
CPU 7 Bimodal branch predictor
Initialize Hawkeye state
Initialize Hawkeye state
Initialize Hawkeye state
Initialize Hawkeye state
Initialize Hawkeye state
Initialize Hawkeye state
Initialize Hawkeye state
Initialize Hawkeye state
Heartbeat CPU 6 instructions: 10000000 cycles: 9270254 heartbeat IPC: 1.07872 cumulative IPC: 1.07872 (Simulation time: 12 hr 46 min 58 sec) 
 Total Blocks : 262144 Invalid Blocks : 347
Heartbeat CPU 3 instructions: 10000000 cycles: 9270266 heartbeat IPC: 1.07872 cumulative IPC: 1.07872 (Simulation time: 12 hr 47 min 3 sec) 
 Total Blocks : 262144 Invalid Blocks : 347
Heartbeat CPU 4 instructions: 10000000 cycles: 9270315 heartbeat IPC: 1.07871 cumulative IPC: 1.07871 (Simulation time: 12 hr 47 min 3 sec) 
 Total Blocks : 262144 Invalid Blocks : 347
Heartbeat CPU 1 instructions: 10000000 cycles: 9270418 heartbeat IPC: 1.0787 cumulative IPC: 1.0787 (Simulation time: 12 hr 47 min 4 sec) 
 Total Blocks : 262144 Invalid Blocks : 347
Heartbeat CPU 2 instructions: 10000000 cycles: 9270549 heartbeat IPC: 1.07868 cumulative IPC: 1.07868 (Simulation time: 12 hr 47 min 4 sec) 
 Total Blocks : 262144 Invalid Blocks : 347
Heartbeat CPU 5 instructions: 10000000 cycles: 9270562 heartbeat IPC: 1.07868 cumulative IPC: 1.07868 (Simulation time: 12 hr 47 min 4 sec) 
 Total Blocks : 262144 Invalid Blocks : 347
Heartbeat CPU 7 instructions: 10000000 cycles: 9270613 heartbeat IPC: 1.07868 cumulative IPC: 1.07868 (Simulation time: 12 hr 47 min 4 sec) 
 Total Blocks : 262144 Invalid Blocks : 347
Heartbeat CPU 0 instructions: 10000000 cycles: 9270633 heartbeat IPC: 1.07868 cumulative IPC: 1.07868 (Simulation time: 12 hr 47 min 4 sec) 
 Total Blocks : 262144 Invalid Blocks : 347
Heartbeat CPU 3 instructions: 20000000 cycles: 18648527 heartbeat IPC: 1.0663 cumulative IPC: 1.07247 (Simulation time: 22 hr 43 min 37 sec) 
 Total Blocks : 262144 Invalid Blocks : 1
Heartbeat CPU 1 instructions: 20000000 cycles: 18649047 heartbeat IPC: 1.06625 cumulative IPC: 1.07244 (Simulation time: 22 hr 43 min 43 sec) 
 Total Blocks : 262144 Invalid Blocks : 1
Heartbeat CPU 4 instructions: 20000000 cycles: 18649085 heartbeat IPC: 1.06624 cumulative IPC: 1.07244 (Simulation time: 22 hr 43 min 43 sec) 
 Total Blocks : 262144 Invalid Blocks : 1
Heartbeat CPU 6 instructions: 20000000 cycles: 18649091 heartbeat IPC: 1.06623 cumulative IPC: 1.07244 (Simulation time: 22 hr 43 min 43 sec) 
 Total Blocks : 262144 Invalid Blocks : 1
Heartbeat CPU 0 instructions: 20000000 cycles: 18649348 heartbeat IPC: 1.06624 cumulative IPC: 1.07242 (Simulation time: 22 hr 43 min 44 sec) 
 Total Blocks : 262144 Invalid Blocks : 1
Heartbeat CPU 2 instructions: 20000000 cycles: 18649539 heartbeat IPC: 1.06621 cumulative IPC: 1.07241 (Simulation time: 22 hr 43 min 44 sec) 
 Total Blocks : 262144 Invalid Blocks : 1
Heartbeat CPU 5 instructions: 20000000 cycles: 18649579 heartbeat IPC: 1.06621 cumulative IPC: 1.07241 (Simulation time: 22 hr 43 min 44 sec) 
 Total Blocks : 262144 Invalid Blocks : 1
Heartbeat CPU 7 instructions: 20000000 cycles: 18649734 heartbeat IPC: 1.0662 cumulative IPC: 1.0724 (Simulation time: 22 hr 43 min 45 sec) 
 Total Blocks : 262144 Invalid Blocks : 1
Heartbeat CPU 3 instructions: 30000003 cycles: 28203074 heartbeat IPC: 1.04662 cumulative IPC: 1.06371 (Simulation time: 30 hr 17 min 8 sec) 
 Total Blocks : 262144 Invalid Blocks : 0
Heartbeat CPU 4 instructions: 30000003 cycles: 28203763 heartbeat IPC: 1.04661 cumulative IPC: 1.06369 (Simulation time: 30 hr 17 min 30 sec) 
 Total Blocks : 262144 Invalid Blocks : 0
Heartbeat CPU 1 instructions: 30000003 cycles: 28203789 heartbeat IPC: 1.0466 cumulative IPC: 1.06369 (Simulation time: 30 hr 17 min 32 sec) 
 Total Blocks : 262144 Invalid Blocks : 0
Heartbeat CPU 6 instructions: 30000003 cycles: 28203851 heartbeat IPC: 1.0466 cumulative IPC: 1.06368 (Simulation time: 30 hr 17 min 32 sec) 
 Total Blocks : 262144 Invalid Blocks : 0
Heartbeat CPU 0 instructions: 30000003 cycles: 28204177 heartbeat IPC: 1.04659 cumulative IPC: 1.06367 (Simulation time: 30 hr 17 min 35 sec) 
 Total Blocks : 262144 Invalid Blocks : 0
Heartbeat CPU 2 instructions: 30000003 cycles: 28204216 heartbeat IPC: 1.04661 cumulative IPC: 1.06367 (Simulation time: 30 hr 17 min 35 sec) 
 Total Blocks : 262144 Invalid Blocks : 0
Heartbeat CPU 5 instructions: 30000003 cycles: 28204355 heartbeat IPC: 1.0466 cumulative IPC: 1.06367 (Simulation time: 30 hr 17 min 36 sec) 
 Total Blocks : 262144 Invalid Blocks : 0
Heartbeat CPU 7 instructions: 30000003 cycles: 28205032 heartbeat IPC: 1.04654 cumulative IPC: 1.06364 (Simulation time: 30 hr 17 min 39 sec) 
 Total Blocks : 262144 Invalid Blocks : 0
Heartbeat CPU 3 instructions: 40000001 cycles: 37613836 heartbeat IPC: 1.06261 cumulative IPC: 1.06344 (Simulation time: 36 hr 50 min 5 sec) 
 Total Blocks : 262144 Invalid Blocks : 0
Heartbeat CPU 1 instructions: 40000001 cycles: 37614412 heartbeat IPC: 1.06263 cumulative IPC: 1.06342 (Simulation time: 36 hr 50 min 6 sec) 
 Total Blocks : 262144 Invalid Blocks : 0
Heartbeat CPU 0 instructions: 40000001 cycles: 37614439 heartbeat IPC: 1.06267 cumulative IPC: 1.06342 (Simulation time: 36 hr 50 min 6 sec) 
 Total Blocks : 262144 Invalid Blocks : 0
Heartbeat CPU 6 instructions: 40000001 cycles: 37614439 heartbeat IPC: 1.06263 cumulative IPC: 1.06342 (Simulation time: 36 hr 50 min 6 sec) 
 Total Blocks : 262144 Invalid Blocks : 0
Heartbeat CPU 4 instructions: 40000001 cycles: 37614598 heartbeat IPC: 1.0626 cumulative IPC: 1.06342 (Simulation time: 36 hr 50 min 7 sec) 
 Total Blocks : 262144 Invalid Blocks : 0
Heartbeat CPU 2 instructions: 40000001 cycles: 37614693 heartbeat IPC: 1.06265 cumulative IPC: 1.06341 (Simulation time: 36 hr 50 min 7 sec) 
 Total Blocks : 262144 Invalid Blocks : 0
Heartbeat CPU 5 instructions: 40000001 cycles: 37615052 heartbeat IPC: 1.06262 cumulative IPC: 1.0634 (Simulation time: 36 hr 50 min 7 sec) 
 Total Blocks : 262144 Invalid Blocks : 0
Heartbeat CPU 7 instructions: 40000001 cycles: 37616298 heartbeat IPC: 1.06256 cumulative IPC: 1.06337 (Simulation time: 36 hr 50 min 8 sec) 
 Total Blocks : 262144 Invalid Blocks : 0
Heartbeat CPU 3 instructions: 50000000 cycles: 47220641 heartbeat IPC: 1.04093 cumulative IPC: 1.05886 (Simulation time: 43 hr 24 min 59 sec) 
 Total Blocks : 262144 Invalid Blocks : 0
Heartbeat CPU 4 instructions: 50000000 cycles: 47221232 heartbeat IPC: 1.04095 cumulative IPC: 1.05885 (Simulation time: 43 hr 25 min 4 sec) 
 Total Blocks : 262144 Invalid Blocks : 0
Heartbeat CPU 6 instructions: 50000000 cycles: 47221238 heartbeat IPC: 1.04093 cumulative IPC: 1.05885 (Simulation time: 43 hr 25 min 4 sec) 
 Total Blocks : 262144 Invalid Blocks : 0
Heartbeat CPU 0 instructions: 50000000 cycles: 47221258 heartbeat IPC: 1.04093 cumulative IPC: 1.05885 (Simulation time: 43 hr 25 min 4 sec) 
 Total Blocks : 262144 Invalid Blocks : 0
Heartbeat CPU 1 instructions: 50000000 cycles: 47221274 heartbeat IPC: 1.04092 cumulative IPC: 1.05884 (Simulation time: 43 hr 25 min 4 sec) 
 Total Blocks : 262144 Invalid Blocks : 0
Heartbeat CPU 2 instructions: 50000000 cycles: 47221473 heartbeat IPC: 1.04093 cumulative IPC: 1.05884 (Simulation time: 43 hr 25 min 4 sec) 
 Total Blocks : 262144 Invalid Blocks : 0
Heartbeat CPU 5 instructions: 50000000 cycles: 47221701 heartbeat IPC: 1.04095 cumulative IPC: 1.05884 (Simulation time: 43 hr 25 min 5 sec) 
 Total Blocks : 262144 Invalid Blocks : 0
Heartbeat CPU 7 instructions: 50000000 cycles: 47223732 heartbeat IPC: 1.04086 cumulative IPC: 1.05879 (Simulation time: 43 hr 25 min 10 sec) 
 Total Blocks : 262144 Invalid Blocks : 0
Heartbeat CPU 3 instructions: 60000001 cycles: 56511229 heartbeat IPC: 1.07636 cumulative IPC: 1.06174 (Simulation time: 48 hr 18 min 14 sec) 
 Total Blocks : 262144 Invalid Blocks : 0
Heartbeat CPU 2 instructions: 60000001 cycles: 56511513 heartbeat IPC: 1.07642 cumulative IPC: 1.06173 (Simulation time: 48 hr 18 min 15 sec) 
 Total Blocks : 262144 Invalid Blocks : 0
Heartbeat CPU 6 instructions: 60000001 cycles: 56511730 heartbeat IPC: 1.07637 cumulative IPC: 1.06173 (Simulation time: 48 hr 18 min 15 sec) 
 Total Blocks : 262144 Invalid Blocks : 0
Heartbeat CPU 4 instructions: 60000001 cycles: 56511875 heartbeat IPC: 1.07635 cumulative IPC: 1.06172 (Simulation time: 48 hr 18 min 15 sec) 
 Total Blocks : 262144 Invalid Blocks : 0
Heartbeat CPU 0 instructions: 60000001 cycles: 56511963 heartbeat IPC: 1.07634 cumulative IPC: 1.06172 (Simulation time: 48 hr 18 min 15 sec) 
 Total Blocks : 262144 Invalid Blocks : 0
Heartbeat CPU 1 instructions: 60000001 cycles: 56512133 heartbeat IPC: 1.07633 cumulative IPC: 1.06172 (Simulation time: 48 hr 18 min 16 sec) 
 Total Blocks : 262144 Invalid Blocks : 0
Heartbeat CPU 5 instructions: 60000001 cycles: 56512344 heartbeat IPC: 1.07635 cumulative IPC: 1.06172 (Simulation time: 48 hr 18 min 16 sec) 
 Total Blocks : 262144 Invalid Blocks : 0
Heartbeat CPU 7 instructions: 60000001 cycles: 56514814 heartbeat IPC: 1.0763 cumulative IPC: 1.06167 (Simulation time: 48 hr 18 min 17 sec) 
 Total Blocks : 262144 Invalid Blocks : 0
Heartbeat CPU 3 instructions: 70000000 cycles: 65967586 heartbeat IPC: 1.05749 cumulative IPC: 1.06113 (Simulation time: 51 hr 37 min 47 sec) 
 Total Blocks : 262144 Invalid Blocks : 0
Heartbeat CPU 2 instructions: 70000000 cycles: 65968360 heartbeat IPC: 1.05743 cumulative IPC: 1.06111 (Simulation time: 51 hr 37 min 51 sec) 
 Total Blocks : 262144 Invalid Blocks : 0
Heartbeat CPU 4 instructions: 70000000 cycles: 65968499 heartbeat IPC: 1.05746 cumulative IPC: 1.06111 (Simulation time: 51 hr 37 min 51 sec) 
 Total Blocks : 262144 Invalid Blocks : 0
Heartbeat CPU 6 instructions: 70000000 cycles: 65968564 heartbeat IPC: 1.05744 cumulative IPC: 1.06111 (Simulation time: 51 hr 37 min 51 sec) 
 Total Blocks : 262144 Invalid Blocks : 0
Heartbeat CPU 0 instructions: 70000000 cycles: 65968696 heartbeat IPC: 1.05745 cumulative IPC: 1.06111 (Simulation time: 51 hr 37 min 51 sec) 
 Total Blocks : 262144 Invalid Blocks : 0
Heartbeat CPU 5 instructions: 70000000 cycles: 65969017 heartbeat IPC: 1.05745 cumulative IPC: 1.0611 (Simulation time: 51 hr 37 min 51 sec) 
 Total Blocks : 262144 Invalid Blocks : 0
Heartbeat CPU 1 instructions: 70000000 cycles: 65969106 heartbeat IPC: 1.05742 cumulative IPC: 1.0611 (Simulation time: 51 hr 37 min 51 sec) 
 Total Blocks : 262144 Invalid Blocks : 0
Heartbeat CPU 7 instructions: 70000000 cycles: 65972042 heartbeat IPC: 1.05739 cumulative IPC: 1.06106 (Simulation time: 51 hr 37 min 56 sec) 
 Total Blocks : 262144 Invalid Blocks : 0
Heartbeat CPU 3 instructions: 80000000 cycles: 75425546 heartbeat IPC: 1.05731 cumulative IPC: 1.06065 (Simulation time: 53 hr 50 min 58 sec) 
 Total Blocks : 262144 Invalid Blocks : 0
Heartbeat CPU 2 instructions: 80000000 cycles: 75426237 heartbeat IPC: 1.05732 cumulative IPC: 1.06064 (Simulation time: 53 hr 50 min 58 sec) 
 Total Blocks : 262144 Invalid Blocks : 0
Heartbeat CPU 4 instructions: 80000000 cycles: 75426497 heartbeat IPC: 1.05731 cumulative IPC: 1.06064 (Simulation time: 53 hr 50 min 58 sec) 
 Total Blocks : 262144 Invalid Blocks : 0
Heartbeat CPU 6 instructions: 80000000 cycles: 75426650 heartbeat IPC: 1.0573 cumulative IPC: 1.06063 (Simulation time: 53 hr 50 min 58 sec) 
 Total Blocks : 262144 Invalid Blocks : 0
Heartbeat CPU 0 instructions: 80000000 cycles: 75426791 heartbeat IPC: 1.0573 cumulative IPC: 1.06063 (Simulation time: 53 hr 50 min 58 sec) 
 Total Blocks : 262144 Invalid Blocks : 0
Heartbeat CPU 5 instructions: 80000000 cycles: 75427208 heartbeat IPC: 1.05728 cumulative IPC: 1.06063 (Simulation time: 53 hr 50 min 58 sec) 
 Total Blocks : 262144 Invalid Blocks : 0
Heartbeat CPU 1 instructions: 80000000 cycles: 75427300 heartbeat IPC: 1.05728 cumulative IPC: 1.06062 (Simulation time: 53 hr 50 min 58 sec) 
 Total Blocks : 262144 Invalid Blocks : 0
Heartbeat CPU 7 instructions: 80000000 cycles: 75430760 heartbeat IPC: 1.05723 cumulative IPC: 1.06058 (Simulation time: 53 hr 50 min 59 sec) 
 Total Blocks : 262144 Invalid Blocks : 0
Heartbeat CPU 3 instructions: 90000002 cycles: 84807667 heartbeat IPC: 1.06586 cumulative IPC: 1.06122 (Simulation time: 55 hr 50 min 56 sec) 
 Total Blocks : 262144 Invalid Blocks : 0
Heartbeat CPU 2 instructions: 90000002 cycles: 84808548 heartbeat IPC: 1.06584 cumulative IPC: 1.06121 (Simulation time: 55 hr 50 min 57 sec) 
 Total Blocks : 262144 Invalid Blocks : 0
Heartbeat CPU 4 instructions: 90000002 cycles: 84808558 heartbeat IPC: 1.06586 cumulative IPC: 1.06121 (Simulation time: 55 hr 50 min 57 sec) 
 Total Blocks : 262144 Invalid Blocks : 0
Heartbeat CPU 6 instructions: 90000002 cycles: 84808995 heartbeat IPC: 1.06583 cumulative IPC: 1.06121 (Simulation time: 55 hr 50 min 57 sec) 
 Total Blocks : 262144 Invalid Blocks : 0
Heartbeat CPU 0 instructions: 90000002 cycles: 84809128 heartbeat IPC: 1.06583 cumulative IPC: 1.06121 (Simulation time: 55 hr 50 min 57 sec) 
 Total Blocks : 262144 Invalid Blocks : 0
Heartbeat CPU 5 instructions: 90000002 cycles: 84809273 heartbeat IPC: 1.06586 cumulative IPC: 1.0612 (Simulation time: 55 hr 50 min 58 sec) 
 Total Blocks : 262144 Invalid Blocks : 0
Heartbeat CPU 1 instructions: 90000002 cycles: 84809669 heartbeat IPC: 1.06583 cumulative IPC: 1.0612 (Simulation time: 55 hr 50 min 58 sec) 
 Total Blocks : 262144 Invalid Blocks : 0
Heartbeat CPU 7 instructions: 90000002 cycles: 84813635 heartbeat IPC: 1.06577 cumulative IPC: 1.06115 (Simulation time: 55 hr 50 min 59 sec) 
 Total Blocks : 262144 Invalid Blocks : 0
Heartbeat CPU 3 instructions: 100000000 cycles: 94239647 heartbeat IPC: 1.06022 cumulative IPC: 1.06112 (Simulation time: 57 hr 32 min 23 sec) 
 Total Blocks : 262144 Invalid Blocks : 0
Heartbeat CPU 4 instructions: 100000000 cycles: 94240585 heartbeat IPC: 1.06022 cumulative IPC: 1.06111 (Simulation time: 57 hr 32 min 41 sec) 
 Total Blocks : 262144 Invalid Blocks : 0
Heartbeat CPU 2 instructions: 100000000 cycles: 94240642 heartbeat IPC: 1.06021 cumulative IPC: 1.06111 (Simulation time: 57 hr 32 min 41 sec) 
 Total Blocks : 262144 Invalid Blocks : 0
Heartbeat CPU 6 instructions: 100000000 cycles: 94241347 heartbeat IPC: 1.06018 cumulative IPC: 1.06111 (Simulation time: 57 hr 32 min 42 sec) 
 Total Blocks : 262144 Invalid Blocks : 0
Heartbeat CPU 5 instructions: 100000000 cycles: 94241357 heartbeat IPC: 1.06021 cumulative IPC: 1.06111 (Simulation time: 57 hr 32 min 42 sec) 
 Total Blocks : 262144 Invalid Blocks : 0
Heartbeat CPU 0 instructions: 100000000 cycles: 94241382 heartbeat IPC: 1.06019 cumulative IPC: 1.06111 (Simulation time: 57 hr 32 min 42 sec) 
 Total Blocks : 262144 Invalid Blocks : 0
Heartbeat CPU 1 instructions: 100000000 cycles: 94241901 heartbeat IPC: 1.06019 cumulative IPC: 1.0611 (Simulation time: 57 hr 32 min 42 sec) 
 Total Blocks : 262144 Invalid Blocks : 0
Heartbeat CPU 7 instructions: 100000000 cycles: 94246410 heartbeat IPC: 1.06013 cumulative IPC: 1.06105 (Simulation time: 57 hr 32 min 48 sec) 
 Total Blocks : 262144 Invalid Blocks : 0
Heartbeat CPU 3 instructions: 110000000 cycles: 103554931 heartbeat IPC: 1.0735 cumulative IPC: 1.06224 (Simulation time: 59 hr 11 min 32 sec) 
 Total Blocks : 262144 Invalid Blocks : 0
Heartbeat CPU 4 instructions: 110000000 cycles: 103555800 heartbeat IPC: 1.07351 cumulative IPC: 1.06223 (Simulation time: 59 hr 11 min 33 sec) 
 Total Blocks : 262144 Invalid Blocks : 0
Heartbeat CPU 2 instructions: 110000000 cycles: 103556176 heartbeat IPC: 1.07348 cumulative IPC: 1.06223 (Simulation time: 59 hr 11 min 33 sec) 
 Total Blocks : 262144 Invalid Blocks : 0
Heartbeat CPU 0 instructions: 110000000 cycles: 103556683 heartbeat IPC: 1.0735 cumulative IPC: 1.06222 (Simulation time: 59 hr 11 min 33 sec) 
 Total Blocks : 262144 Invalid Blocks : 0
Heartbeat CPU 5 instructions: 110000000 cycles: 103556824 heartbeat IPC: 1.07348 cumulative IPC: 1.06222 (Simulation time: 59 hr 11 min 33 sec) 
 Total Blocks : 262144 Invalid Blocks : 0
Heartbeat CPU 6 instructions: 110000000 cycles: 103556906 heartbeat IPC: 1.07347 cumulative IPC: 1.06222 (Simulation time: 59 hr 11 min 33 sec) 
 Total Blocks : 262144 Invalid Blocks : 0
Heartbeat CPU 1 instructions: 110000000 cycles: 103557181 heartbeat IPC: 1.07351 cumulative IPC: 1.06222 (Simulation time: 59 hr 11 min 33 sec) 
 Total Blocks : 262144 Invalid Blocks : 0
Heartbeat CPU 7 instructions: 110000000 cycles: 103562135 heartbeat IPC: 1.07345 cumulative IPC: 1.06216 (Simulation time: 59 hr 11 min 35 sec) 
 Total Blocks : 262144 Invalid Blocks : 0
Heartbeat CPU 3 instructions: 120000000 cycles: 112907377 heartbeat IPC: 1.06924 cumulative IPC: 1.06282 (Simulation time: 60 hr 43 min 33 sec) 
 Total Blocks : 262144 Invalid Blocks : 0
Heartbeat CPU 4 instructions: 120000000 cycles: 112908267 heartbeat IPC: 1.06924 cumulative IPC: 1.06281 (Simulation time: 60 hr 43 min 34 sec) 
 Total Blocks : 262144 Invalid Blocks : 0
Heartbeat CPU 2 instructions: 120000000 cycles: 112908506 heartbeat IPC: 1.06925 cumulative IPC: 1.06281 (Simulation time: 60 hr 43 min 34 sec) 
 Total Blocks : 262144 Invalid Blocks : 0
Heartbeat CPU 5 instructions: 120000000 cycles: 112909106 heartbeat IPC: 1.06926 cumulative IPC: 1.0628 (Simulation time: 60 hr 43 min 34 sec) 
 Total Blocks : 262144 Invalid Blocks : 0
Heartbeat CPU 0 instructions: 120000000 cycles: 112909118 heartbeat IPC: 1.06924 cumulative IPC: 1.0628 (Simulation time: 60 hr 43 min 34 sec) 
 Total Blocks : 262144 Invalid Blocks : 0
Heartbeat CPU 6 instructions: 120000000 cycles: 112909387 heartbeat IPC: 1.06923 cumulative IPC: 1.0628 (Simulation time: 60 hr 43 min 34 sec) 
 Total Blocks : 262144 Invalid Blocks : 0
Heartbeat CPU 1 instructions: 120000000 cycles: 112909726 heartbeat IPC: 1.06923 cumulative IPC: 1.0628 (Simulation time: 60 hr 43 min 34 sec) 
 Total Blocks : 262144 Invalid Blocks : 0
Heartbeat CPU 7 instructions: 120000000 cycles: 112915068 heartbeat IPC: 1.06918 cumulative IPC: 1.06275 (Simulation time: 60 hr 43 min 35 sec) 
 Total Blocks : 262144 Invalid Blocks : 0
Heartbeat CPU 3 instructions: 130000000 cycles: 122210895 heartbeat IPC: 1.07486 cumulative IPC: 1.06373 (Simulation time: 62 hr 7 min 24 sec) 
 Total Blocks : 262144 Invalid Blocks : 0
Heartbeat CPU 2 instructions: 130000000 cycles: 122212001 heartbeat IPC: 1.07486 cumulative IPC: 1.06373 (Simulation time: 62 hr 7 min 25 sec) 
 Total Blocks : 262144 Invalid Blocks : 0
Heartbeat CPU 4 instructions: 130000000 cycles: 122212032 heartbeat IPC: 1.07483 cumulative IPC: 1.06372 (Simulation time: 62 hr 7 min 25 sec) 
 Total Blocks : 262144 Invalid Blocks : 0
Heartbeat CPU 0 instructions: 130000000 cycles: 122212989 heartbeat IPC: 1.07482 cumulative IPC: 1.06372 (Simulation time: 62 hr 7 min 25 sec) 
 Total Blocks : 262144 Invalid Blocks : 0
Heartbeat CPU 5 instructions: 130000000 cycles: 122213173 heartbeat IPC: 1.0748 cumulative IPC: 1.06372 (Simulation time: 62 hr 7 min 25 sec) 
 Total Blocks : 262144 Invalid Blocks : 0
Heartbeat CPU 6 instructions: 130000000 cycles: 122213262 heartbeat IPC: 1.07482 cumulative IPC: 1.06371 (Simulation time: 62 hr 7 min 25 sec) 
 Total Blocks : 262144 Invalid Blocks : 0
Heartbeat CPU 1 instructions: 130000000 cycles: 122213663 heartbeat IPC: 1.07481 cumulative IPC: 1.06371 (Simulation time: 62 hr 7 min 25 sec) 
 Total Blocks : 262144 Invalid Blocks : 0
Heartbeat CPU 7 instructions: 130000000 cycles: 122219293 heartbeat IPC: 1.07478 cumulative IPC: 1.06366 (Simulation time: 62 hr 7 min 29 sec) 
 Total Blocks : 262144 Invalid Blocks : 0
Heartbeat CPU 3 instructions: 140000000 cycles: 131636041 heartbeat IPC: 1.06099 cumulative IPC: 1.06354 (Simulation time: 63 hr 19 min 18 sec) 
 Total Blocks : 262144 Invalid Blocks : 0
Heartbeat CPU 2 instructions: 140000000 cycles: 131636789 heartbeat IPC: 1.06103 cumulative IPC: 1.06353 (Simulation time: 63 hr 19 min 19 sec) 
 Total Blocks : 262144 Invalid Blocks : 0
Heartbeat CPU 4 instructions: 140000000 cycles: 131636978 heartbeat IPC: 1.06101 cumulative IPC: 1.06353 (Simulation time: 63 hr 19 min 20 sec) 
 Total Blocks : 262144 Invalid Blocks : 0
Heartbeat CPU 5 instructions: 140000000 cycles: 131638036 heartbeat IPC: 1.06102 cumulative IPC: 1.06352 (Simulation time: 63 hr 19 min 20 sec) 
 Total Blocks : 262144 Invalid Blocks : 0
Heartbeat CPU 0 instructions: 140000000 cycles: 131638069 heartbeat IPC: 1.061 cumulative IPC: 1.06352 (Simulation time: 63 hr 19 min 20 sec) 
 Total Blocks : 262144 Invalid Blocks : 0
Heartbeat CPU 6 instructions: 140000000 cycles: 131638256 heartbeat IPC: 1.06101 cumulative IPC: 1.06352 (Simulation time: 63 hr 19 min 20 sec) 
 Total Blocks : 262144 Invalid Blocks : 0
Heartbeat CPU 1 instructions: 140000000 cycles: 131638734 heartbeat IPC: 1.061 cumulative IPC: 1.06352 (Simulation time: 63 hr 19 min 22 sec) 
 Total Blocks : 262144 Invalid Blocks : 0
Heartbeat CPU 7 instructions: 140000000 cycles: 131644557 heartbeat IPC: 1.06098 cumulative IPC: 1.06347 (Simulation time: 63 hr 19 min 23 sec) 
 Total Blocks : 262144 Invalid Blocks : 0
Heartbeat CPU 3 instructions: 150000002 cycles: 141010462 heartbeat IPC: 1.06673 cumulative IPC: 1.06375 (Simulation time: 64 hr 31 min 33 sec) 
 Total Blocks : 262144 Invalid Blocks : 0
Heartbeat CPU 2 instructions: 150000002 cycles: 141011242 heartbeat IPC: 1.06673 cumulative IPC: 1.06375 (Simulation time: 64 hr 31 min 39 sec) 
 Total Blocks : 262144 Invalid Blocks : 0
Heartbeat CPU 4 instructions: 150000002 cycles: 141011253 heartbeat IPC: 1.06675 cumulative IPC: 1.06374 (Simulation time: 64 hr 31 min 39 sec) 
 Total Blocks : 262144 Invalid Blocks : 0
Heartbeat CPU 5 instructions: 150000002 cycles: 141012225 heartbeat IPC: 1.06676 cumulative IPC: 1.06374 (Simulation time: 64 hr 31 min 40 sec) 
 Total Blocks : 262144 Invalid Blocks : 0
Heartbeat CPU 0 instructions: 150000002 cycles: 141012759 heartbeat IPC: 1.0667 cumulative IPC: 1.06373 (Simulation time: 64 hr 31 min 40 sec) 
 Total Blocks : 262144 Invalid Blocks : 0
Heartbeat CPU 6 instructions: 150000002 cycles: 141012870 heartbeat IPC: 1.06671 cumulative IPC: 1.06373 (Simulation time: 64 hr 31 min 40 sec) 
 Total Blocks : 262144 Invalid Blocks : 0
Heartbeat CPU 1 instructions: 150000002 cycles: 141013531 heartbeat IPC: 1.06669 cumulative IPC: 1.06373 (Simulation time: 64 hr 31 min 40 sec) 
 Total Blocks : 262144 Invalid Blocks : 0
Heartbeat CPU 7 instructions: 150000002 cycles: 141019567 heartbeat IPC: 1.06667 cumulative IPC: 1.06368 (Simulation time: 64 hr 31 min 47 sec) 
 Total Blocks : 262144 Invalid Blocks : 0
Heartbeat CPU 3 instructions: 160000000 cycles: 150419898 heartbeat IPC: 1.06276 cumulative IPC: 1.06369 (Simulation time: 65 hr 35 min 34 sec) 
 Total Blocks : 262144 Invalid Blocks : 0
Heartbeat CPU 2 instructions: 160000000 cycles: 150420799 heartbeat IPC: 1.06275 cumulative IPC: 1.06368 (Simulation time: 65 hr 35 min 36 sec) 
 Total Blocks : 262144 Invalid Blocks : 0
Heartbeat CPU 4 instructions: 160000000 cycles: 150420810 heartbeat IPC: 1.06275 cumulative IPC: 1.06368 (Simulation time: 65 hr 35 min 36 sec) 
 Total Blocks : 262144 Invalid Blocks : 0
Heartbeat CPU 5 instructions: 160000000 cycles: 150421680 heartbeat IPC: 1.06276 cumulative IPC: 1.06368 (Simulation time: 65 hr 35 min 39 sec) 
 Total Blocks : 262144 Invalid Blocks : 0
Heartbeat CPU 0 instructions: 160000000 cycles: 150422487 heartbeat IPC: 1.06273 cumulative IPC: 1.06367 (Simulation time: 65 hr 35 min 40 sec) 
 Total Blocks : 262144 Invalid Blocks : 0
Heartbeat CPU 6 instructions: 160000000 cycles: 150422745 heartbeat IPC: 1.06271 cumulative IPC: 1.06367 (Simulation time: 65 hr 35 min 40 sec) 
 Total Blocks : 262144 Invalid Blocks : 0
Heartbeat CPU 1 instructions: 160000000 cycles: 150423330 heartbeat IPC: 1.06272 cumulative IPC: 1.06366 (Simulation time: 65 hr 35 min 41 sec) 
 Total Blocks : 262144 Invalid Blocks : 0
Heartbeat CPU 7 instructions: 160000000 cycles: 150429888 heartbeat IPC: 1.06266 cumulative IPC: 1.06362 (Simulation time: 65 hr 35 min 44 sec) 
 Total Blocks : 262144 Invalid Blocks : 0
Heartbeat CPU 3 instructions: 170000002 cycles: 159808397 heartbeat IPC: 1.06513 cumulative IPC: 1.06377 (Simulation time: 66 hr 39 min 28 sec) 
 Total Blocks : 262144 Invalid Blocks : 0
Heartbeat CPU 2 instructions: 170000002 cycles: 159809246 heartbeat IPC: 1.06514 cumulative IPC: 1.06377 (Simulation time: 66 hr 39 min 29 sec) 
 Total Blocks : 262144 Invalid Blocks : 0
Heartbeat CPU 4 instructions: 170000002 cycles: 159809488 heartbeat IPC: 1.06511 cumulative IPC: 1.06377 (Simulation time: 66 hr 39 min 29 sec) 
 Total Blocks : 262144 Invalid Blocks : 0
Heartbeat CPU 5 instructions: 170000002 cycles: 159810350 heartbeat IPC: 1.06511 cumulative IPC: 1.06376 (Simulation time: 66 hr 39 min 30 sec) 
 Total Blocks : 262144 Invalid Blocks : 0
Heartbeat CPU 0 instructions: 170000002 cycles: 159811004 heartbeat IPC: 1.06513 cumulative IPC: 1.06376 (Simulation time: 66 hr 39 min 30 sec) 
 Total Blocks : 262144 Invalid Blocks : 0
Heartbeat CPU 6 instructions: 170000002 cycles: 159811732 heartbeat IPC: 1.06508 cumulative IPC: 1.06375 (Simulation time: 66 hr 39 min 30 sec) 
 Total Blocks : 262144 Invalid Blocks : 0
Heartbeat CPU 1 instructions: 170000002 cycles: 159812192 heartbeat IPC: 1.06509 cumulative IPC: 1.06375 (Simulation time: 66 hr 39 min 30 sec) 
 Total Blocks : 262144 Invalid Blocks : 0
Heartbeat CPU 7 instructions: 170000002 cycles: 159818833 heartbeat IPC: 1.06508 cumulative IPC: 1.0637 (Simulation time: 66 hr 39 min 32 sec) 
 Total Blocks : 262144 Invalid Blocks : 0
Heartbeat CPU 3 instructions: 180000000 cycles: 169132612 heartbeat IPC: 1.07248 cumulative IPC: 1.06425 (Simulation time: 67 hr 48 min 33 sec) 
 Total Blocks : 262144 Invalid Blocks : 0
Heartbeat CPU 2 instructions: 180000000 cycles: 169133767 heartbeat IPC: 1.07244 cumulative IPC: 1.06425 (Simulation time: 67 hr 48 min 34 sec) 
 Total Blocks : 262144 Invalid Blocks : 0
Heartbeat CPU 4 instructions: 180000000 cycles: 169133908 heartbeat IPC: 1.07245 cumulative IPC: 1.06425 (Simulation time: 67 hr 48 min 34 sec) 
 Total Blocks : 262144 Invalid Blocks : 0
Heartbeat CPU 5 instructions: 180000000 cycles: 169134817 heartbeat IPC: 1.07245 cumulative IPC: 1.06424 (Simulation time: 67 hr 48 min 34 sec) 
 Total Blocks : 262144 Invalid Blocks : 0
Heartbeat CPU 0 instructions: 180000000 cycles: 169135796 heartbeat IPC: 1.07241 cumulative IPC: 1.06423 (Simulation time: 67 hr 48 min 34 sec) 
 Total Blocks : 262144 Invalid Blocks : 0
Heartbeat CPU 6 instructions: 180000000 cycles: 169136241 heartbeat IPC: 1.07244 cumulative IPC: 1.06423 (Simulation time: 67 hr 48 min 34 sec) 
 Total Blocks : 262144 Invalid Blocks : 0
Heartbeat CPU 1 instructions: 180000000 cycles: 169136623 heartbeat IPC: 1.07245 cumulative IPC: 1.06423 (Simulation time: 67 hr 48 min 34 sec) 
 Total Blocks : 262144 Invalid Blocks : 0
Heartbeat CPU 7 instructions: 180000000 cycles: 169143541 heartbeat IPC: 1.07242 cumulative IPC: 1.06418 (Simulation time: 67 hr 48 min 36 sec) 
 Total Blocks : 262144 Invalid Blocks : 0
Heartbeat CPU 3 instructions: 190000003 cycles: 178446573 heartbeat IPC: 1.07366 cumulative IPC: 1.06474 (Simulation time: 69 hr 21 min 31 sec) 
 Total Blocks : 262144 Invalid Blocks : 0
Heartbeat CPU 2 instructions: 190000003 cycles: 178447729 heartbeat IPC: 1.07366 cumulative IPC: 1.06474 (Simulation time: 69 hr 21 min 31 sec) 
 Total Blocks : 262144 Invalid Blocks : 0
Heartbeat CPU 4 instructions: 190000003 cycles: 178447894 heartbeat IPC: 1.07365 cumulative IPC: 1.06474 (Simulation time: 69 hr 21 min 32 sec) 
 Total Blocks : 262144 Invalid Blocks : 0
Heartbeat CPU 5 instructions: 190000003 cycles: 178448894 heartbeat IPC: 1.07364 cumulative IPC: 1.06473 (Simulation time: 69 hr 21 min 32 sec) 
 Total Blocks : 262144 Invalid Blocks : 0
Heartbeat CPU 0 instructions: 190000003 cycles: 178449875 heartbeat IPC: 1.07364 cumulative IPC: 1.06472 (Simulation time: 69 hr 21 min 32 sec) 
 Total Blocks : 262144 Invalid Blocks : 0
Heartbeat CPU 6 instructions: 190000003 cycles: 178450344 heartbeat IPC: 1.07364 cumulative IPC: 1.06472 (Simulation time: 69 hr 21 min 32 sec) 
 Total Blocks : 262144 Invalid Blocks : 0
Heartbeat CPU 1 instructions: 190000003 cycles: 178450860 heartbeat IPC: 1.07363 cumulative IPC: 1.06472 (Simulation time: 69 hr 21 min 32 sec) 
 Total Blocks : 262144 Invalid Blocks : 0
Heartbeat CPU 7 instructions: 190000003 cycles: 178458049 heartbeat IPC: 1.07359 cumulative IPC: 1.06468 (Simulation time: 69 hr 21 min 34 sec) 
 Total Blocks : 262144 Invalid Blocks : 0
Heartbeat CPU 3 instructions: 200000001 cycles: 187760393 heartbeat IPC: 1.07367 cumulative IPC: 1.06519 (Simulation time: 70 hr 18 min 29 sec) 
 Total Blocks : 262144 Invalid Blocks : 0
Heartbeat CPU 2 instructions: 200000001 cycles: 187761475 heartbeat IPC: 1.07368 cumulative IPC: 1.06518 (Simulation time: 70 hr 18 min 30 sec) 
 Total Blocks : 262144 Invalid Blocks : 0
Heartbeat CPU 4 instructions: 200000001 cycles: 187761733 heartbeat IPC: 1.07367 cumulative IPC: 1.06518 (Simulation time: 70 hr 18 min 30 sec) 
 Total Blocks : 262144 Invalid Blocks : 0
Heartbeat CPU 5 instructions: 200000001 cycles: 187762572 heartbeat IPC: 1.07369 cumulative IPC: 1.06518 (Simulation time: 70 hr 18 min 30 sec) 
 Total Blocks : 262144 Invalid Blocks : 0
Heartbeat CPU 0 instructions: 200000001 cycles: 187763644 heartbeat IPC: 1.07368 cumulative IPC: 1.06517 (Simulation time: 70 hr 18 min 30 sec) 
 Total Blocks : 262144 Invalid Blocks : 0
Heartbeat CPU 6 instructions: 200000001 cycles: 187763996 heartbeat IPC: 1.07369 cumulative IPC: 1.06517 (Simulation time: 70 hr 18 min 30 sec) 
 Total Blocks : 262144 Invalid Blocks : 0
Heartbeat CPU 1 instructions: 200000001 cycles: 187765046 heartbeat IPC: 1.07363 cumulative IPC: 1.06516 (Simulation time: 70 hr 18 min 31 sec) 
 Total Blocks : 262144 Invalid Blocks : 0
Heartbeat CPU 7 instructions: 200000001 cycles: 187772254 heartbeat IPC: 1.07363 cumulative IPC: 1.06512 (Simulation time: 70 hr 18 min 32 sec) 
 Total Blocks : 262144 Invalid Blocks : 0

Warmup complete CPU 0 instructions: 200009072 cycles: 187772254 (Simulation time: 70 hr 18 min 32 sec) 
Warmup complete CPU 1 instructions: 200007572 cycles: 187772254 (Simulation time: 70 hr 18 min 32 sec) 
Warmup complete CPU 2 instructions: 200011178 cycles: 187772254 (Simulation time: 70 hr 18 min 32 sec) 
Warmup complete CPU 3 instructions: 200012069 cycles: 187772254 (Simulation time: 70 hr 18 min 32 sec) 
Warmup complete CPU 4 instructions: 200010938 cycles: 187772254 (Simulation time: 70 hr 18 min 32 sec) 
Warmup complete CPU 5 instructions: 200009918 cycles: 187772254 (Simulation time: 70 hr 18 min 32 sec) 
Warmup complete CPU 6 instructions: 200008566 cycles: 187772254 (Simulation time: 70 hr 18 min 32 sec) 
Warmup complete CPU 7 instructions: 200000001 cycles: 187772254 (Simulation time: 70 hr 18 min 32 sec) 

Heartbeat CPU 5 instructions: 210000003 cycles: 241435342 heartbeat IPC: 0.186314 cumulative IPC: 0.186163 (Simulation time: 71 hr 59 min 25 sec) 
 Total Blocks : 262144 Invalid Blocks : 0
Heartbeat CPU 3 instructions: 210000003 cycles: 241483262 heartbeat IPC: 0.186141 cumulative IPC: 0.185957 (Simulation time: 71 hr 59 min 29 sec) 
 Total Blocks : 262144 Invalid Blocks : 0
Heartbeat CPU 4 instructions: 210000003 cycles: 241598723 heartbeat IPC: 0.185746 cumulative IPC: 0.185579 (Simulation time: 71 hr 59 min 38 sec) 
 Total Blocks : 262144 Invalid Blocks : 0
Heartbeat CPU 2 instructions: 210000003 cycles: 241663239 heartbeat IPC: 0.185523 cumulative IPC: 0.185352 (Simulation time: 71 hr 59 min 44 sec) 
 Total Blocks : 262144 Invalid Blocks : 0
Heartbeat CPU 1 instructions: 210000003 cycles: 241665597 heartbeat IPC: 0.185527 cumulative IPC: 0.185411 (Simulation time: 71 hr 59 min 45 sec) 
 Total Blocks : 262144 Invalid Blocks : 0
Heartbeat CPU 6 instructions: 210000003 cycles: 241681385 heartbeat IPC: 0.185469 cumulative IPC: 0.185338 (Simulation time: 71 hr 59 min 46 sec) 
 Total Blocks : 262144 Invalid Blocks : 0
Heartbeat CPU 7 instructions: 210000003 cycles: 241704532 heartbeat IPC: 0.185418 cumulative IPC: 0.185418 (Simulation time: 71 hr 59 min 47 sec) 
 Total Blocks : 262144 Invalid Blocks : 0
Heartbeat CPU 0 instructions: 210000003 cycles: 241738289 heartbeat IPC: 0.185272 cumulative IPC: 0.185134 (Simulation time: 71 hr 59 min 50 sec) 
 Total Blocks : 262144 Invalid Blocks : 0
Heartbeat CPU 5 instructions: 220000000 cycles: 294243357 heartbeat IPC: 0.189365 cumulative IPC: 0.187751 (Simulation time: 74 hr 5 min 27 sec) 
 Total Blocks : 262144 Invalid Blocks : 0
Heartbeat CPU 3 instructions: 220000000 cycles: 294290570 heartbeat IPC: 0.189368 cumulative IPC: 0.187648 (Simulation time: 74 hr 5 min 35 sec) 
 Total Blocks : 262144 Invalid Blocks : 0
Heartbeat CPU 4 instructions: 220000000 cycles: 294308107 heartbeat IPC: 0.189719 cumulative IPC: 0.187628 (Simulation time: 74 hr 5 min 41 sec) 
 Total Blocks : 262144 Invalid Blocks : 0
Heartbeat CPU 2 instructions: 220000000 cycles: 294474721 heartbeat IPC: 0.189353 cumulative IPC: 0.187332 (Simulation time: 74 hr 5 min 57 sec) 
 Total Blocks : 262144 Invalid Blocks : 0
Heartbeat CPU 1 instructions: 220000000 cycles: 294641073 heartbeat IPC: 0.188767 cumulative IPC: 0.187074 (Simulation time: 74 hr 6 min 17 sec) 
 Total Blocks : 262144 Invalid Blocks : 0
Heartbeat CPU 0 instructions: 220000000 cycles: 294734657 heartbeat IPC: 0.188692 cumulative IPC: 0.186897 (Simulation time: 74 hr 6 min 29 sec) 
 Total Blocks : 262144 Invalid Blocks : 0
Heartbeat CPU 6 instructions: 220000000 cycles: 294747138 heartbeat IPC: 0.188445 cumulative IPC: 0.18688 (Simulation time: 74 hr 6 min 30 sec) 
 Total Blocks : 262144 Invalid Blocks : 0
Heartbeat CPU 7 instructions: 220000000 cycles: 294765303 heartbeat IPC: 0.188463 cumulative IPC: 0.186928 (Simulation time: 74 hr 6 min 31 sec) 
 Total Blocks : 262144 Invalid Blocks : 0
Heartbeat CPU 5 instructions: 230000000 cycles: 347132729 heartbeat IPC: 0.189074 cumulative IPC: 0.18819 (Simulation time: 76 hr 5 min 50 sec) 
 Total Blocks : 262144 Invalid Blocks : 0
Heartbeat CPU 4 instructions: 230000000 cycles: 347384244 heartbeat IPC: 0.188409 cumulative IPC: 0.187887 (Simulation time: 76 hr 6 min 37 sec) 
 Total Blocks : 262144 Invalid Blocks : 0
Heartbeat CPU 2 instructions: 230000000 cycles: 347502045 heartbeat IPC: 0.188582 cumulative IPC: 0.187747 (Simulation time: 76 hr 7 min 4 sec) 
 Total Blocks : 262144 Invalid Blocks : 0
Heartbeat CPU 3 instructions: 230000000 cycles: 347534707 heartbeat IPC: 0.187814 cumulative IPC: 0.187703 (Simulation time: 76 hr 7 min 12 sec) 
 Total Blocks : 262144 Invalid Blocks : 0
Heartbeat CPU 1 instructions: 230000000 cycles: 347626275 heartbeat IPC: 0.188732 cumulative IPC: 0.187624 (Simulation time: 76 hr 7 min 28 sec) 
 Total Blocks : 262144 Invalid Blocks : 0
Heartbeat CPU 6 instructions: 230000000 cycles: 347724261 heartbeat IPC: 0.188761 cumulative IPC: 0.187503 (Simulation time: 76 hr 8 min 16 sec) 
 Total Blocks : 262144 Invalid Blocks : 0
Heartbeat CPU 7 instructions: 230000000 cycles: 347857356 heartbeat IPC: 0.188352 cumulative IPC: 0.1874 (Simulation time: 76 hr 8 min 45 sec) 
 Total Blocks : 262144 Invalid Blocks : 0
Heartbeat CPU 0 instructions: 230000000 cycles: 347881032 heartbeat IPC: 0.18816 cumulative IPC: 0.187316 (Simulation time: 76 hr 8 min 52 sec) 
 Total Blocks : 262144 Invalid Blocks : 0
Heartbeat CPU 5 instructions: 240000000 cycles: 399867921 heartbeat IPC: 0.189627 cumulative IPC: 0.188547 (Simulation time: 78 hr 22 min 1 sec) 
 Total Blocks : 262144 Invalid Blocks : 0
Heartbeat CPU 4 instructions: 240000000 cycles: 400250706 heartbeat IPC: 0.189156 cumulative IPC: 0.188203 (Simulation time: 78 hr 23 min 14 sec) 
 Total Blocks : 262144 Invalid Blocks : 0
Heartbeat CPU 2 instructions: 240000000 cycles: 400416164 heartbeat IPC: 0.188985 cumulative IPC: 0.188055 (Simulation time: 78 hr 23 min 32 sec) 
 Total Blocks : 262144 Invalid Blocks : 0
Heartbeat CPU 3 instructions: 240000000 cycles: 400430887 heartbeat IPC: 0.18905 cumulative IPC: 0.188038 (Simulation time: 78 hr 23 min 37 sec) 
 Total Blocks : 262144 Invalid Blocks : 0
Heartbeat CPU 1 instructions: 240000000 cycles: 400456691 heartbeat IPC: 0.189285 cumulative IPC: 0.188036 (Simulation time: 78 hr 23 min 41 sec) 
 Total Blocks : 262144 Invalid Blocks : 0
Heartbeat CPU 6 instructions: 240000000 cycles: 400528958 heartbeat IPC: 0.189377 cumulative IPC: 0.187968 (Simulation time: 78 hr 24 min 15 sec) 
 Total Blocks : 262144 Invalid Blocks : 0
Heartbeat CPU 7 instructions: 240000000 cycles: 400751234 heartbeat IPC: 0.189058 cumulative IPC: 0.187812 (Simulation time: 78 hr 24 min 34 sec) 
 Total Blocks : 262144 Invalid Blocks : 0
Heartbeat CPU 0 instructions: 240000000 cycles: 400811143 heartbeat IPC: 0.188928 cumulative IPC: 0.187717 (Simulation time: 78 hr 24 min 38 sec) 
 Total Blocks : 262144 Invalid Blocks : 0
Heartbeat CPU 5 instructions: 250000001 cycles: 451094694 heartbeat IPC: 0.19521 cumulative IPC: 0.189844 (Simulation time: 80 hr 43 min 34 sec) 
 Total Blocks : 262144 Invalid Blocks : 0
Heartbeat CPU 4 instructions: 250000001 cycles: 451420899 heartbeat IPC: 0.195426 cumulative IPC: 0.189605 (Simulation time: 80 hr 44 min 39 sec) 
 Total Blocks : 262144 Invalid Blocks : 0
Heartbeat CPU 3 instructions: 250000001 cycles: 451899401 heartbeat IPC: 0.194294 cumulative IPC: 0.189257 (Simulation time: 80 hr 45 min 48 sec) 
 Total Blocks : 262144 Invalid Blocks : 0
Heartbeat CPU 1 instructions: 250000001 cycles: 451991545 heartbeat IPC: 0.194043 cumulative IPC: 0.189208 (Simulation time: 80 hr 45 min 55 sec) 
 Total Blocks : 262144 Invalid Blocks : 0
Heartbeat CPU 2 instructions: 250000001 cycles: 452000329 heartbeat IPC: 0.193858 cumulative IPC: 0.189188 (Simulation time: 80 hr 45 min 57 sec) 
 Total Blocks : 262144 Invalid Blocks : 0
Heartbeat CPU 6 instructions: 250000001 cycles: 452009808 heartbeat IPC: 0.194247 cumulative IPC: 0.189191 (Simulation time: 80 hr 45 min 58 sec) 
 Total Blocks : 262144 Invalid Blocks : 0
Heartbeat CPU 7 instructions: 250000001 cycles: 452023439 heartbeat IPC: 0.195037 cumulative IPC: 0.189214 (Simulation time: 80 hr 45 min 59 sec) 
 Total Blocks : 262144 Invalid Blocks : 0
Heartbeat CPU 0 instructions: 250000001 cycles: 452048706 heartbeat IPC: 0.195169 cumulative IPC: 0.189161 (Simulation time: 80 hr 46 min 0 sec) 
 Total Blocks : 262144 Invalid Blocks : 0
Heartbeat CPU 5 instructions: 260000000 cycles: 502504404 heartbeat IPC: 0.194516 cumulative IPC: 0.190607 (Simulation time: 83 hr 7 min 56 sec) 
 Total Blocks : 262144 Invalid Blocks : 0
Heartbeat CPU 4 instructions: 260000000 cycles: 502964876 heartbeat IPC: 0.194009 cumulative IPC: 0.190325 (Simulation time: 83 hr 10 min 16 sec) 
 Total Blocks : 262144 Invalid Blocks : 0
Heartbeat CPU 3 instructions: 260000000 cycles: 503304784 heartbeat IPC: 0.194532 cumulative IPC: 0.190116 (Simulation time: 83 hr 12 min 6 sec) 
 Total Blocks : 262144 Invalid Blocks : 0
Heartbeat CPU 1 instructions: 260000000 cycles: 503496861 heartbeat IPC: 0.194155 cumulative IPC: 0.190015 (Simulation time: 83 hr 12 min 49 sec) 
 Total Blocks : 262144 Invalid Blocks : 0
Heartbeat CPU 2 instructions: 260000000 cycles: 503782063 heartbeat IPC: 0.193118 cumulative IPC: 0.189832 (Simulation time: 83 hr 14 min 11 sec) 
 Total Blocks : 262144 Invalid Blocks : 0
Heartbeat CPU 7 instructions: 260000000 cycles: 503854190 heartbeat IPC: 0.192936 cumulative IPC: 0.189824 (Simulation time: 83 hr 14 min 36 sec) 
 Total Blocks : 262144 Invalid Blocks : 0
Heartbeat CPU 6 instructions: 260000000 cycles: 503857503 heartbeat IPC: 0.192873 cumulative IPC: 0.189795 (Simulation time: 83 hr 14 min 37 sec) 
 Total Blocks : 262144 Invalid Blocks : 0
Heartbeat CPU 0 instructions: 260000000 cycles: 503871433 heartbeat IPC: 0.192966 cumulative IPC: 0.189785 (Simulation time: 83 hr 14 min 38 sec) 
 Total Blocks : 262144 Invalid Blocks : 0
Heartbeat CPU 5 instructions: 270000002 cycles: 555215092 heartbeat IPC: 0.189715 cumulative IPC: 0.190479 (Simulation time: 85 hr 36 min 27 sec) 
 Total Blocks : 262144 Invalid Blocks : 0
Heartbeat CPU 4 instructions: 270000002 cycles: 555727421 heartbeat IPC: 0.189528 cumulative IPC: 0.190211 (Simulation time: 85 hr 37 min 19 sec) 
 Total Blocks : 262144 Invalid Blocks : 0
Heartbeat CPU 3 instructions: 270000002 cycles: 555994567 heartbeat IPC: 0.18979 cumulative IPC: 0.19007 (Simulation time: 85 hr 37 min 48 sec) 
 Total Blocks : 262144 Invalid Blocks : 0
Heartbeat CPU 1 instructions: 270000002 cycles: 556226717 heartbeat IPC: 0.189646 cumulative IPC: 0.189962 (Simulation time: 85 hr 38 min 18 sec) 
 Total Blocks : 262144 Invalid Blocks : 0
Heartbeat CPU 2 instructions: 270000002 cycles: 556508563 heartbeat IPC: 0.189658 cumulative IPC: 0.189807 (Simulation time: 85 hr 38 min 46 sec) 
 Total Blocks : 262144 Invalid Blocks : 0
Heartbeat CPU 0 instructions: 270000002 cycles: 556832969 heartbeat IPC: 0.188816 cumulative IPC: 0.189646 (Simulation time: 85 hr 39 min 27 sec) 
 Total Blocks : 262144 Invalid Blocks : 0
Heartbeat CPU 6 instructions: 270000002 cycles: 556846144 heartbeat IPC: 0.18872 cumulative IPC: 0.189641 (Simulation time: 85 hr 39 min 28 sec) 
 Total Blocks : 262144 Invalid Blocks : 0
Heartbeat CPU 7 instructions: 270000002 cycles: 556850796 heartbeat IPC: 0.188691 cumulative IPC: 0.189662 (Simulation time: 85 hr 39 min 28 sec) 
 Total Blocks : 262144 Invalid Blocks : 0
Heartbeat CPU 5 instructions: 280000000 cycles: 609250102 heartbeat IPC: 0.185065 cumulative IPC: 0.189785 (Simulation time: 87 hr 17 min 25 sec) 
 Total Blocks : 262144 Invalid Blocks : 0
Heartbeat CPU 4 instructions: 280000000 cycles: 609756664 heartbeat IPC: 0.185085 cumulative IPC: 0.189555 (Simulation time: 87 hr 18 min 25 sec) 
 Total Blocks : 262144 Invalid Blocks : 0
Heartbeat CPU 3 instructions: 280000000 cycles: 610066814 heartbeat IPC: 0.184938 cumulative IPC: 0.189413 (Simulation time: 87 hr 18 min 59 sec) 
 Total Blocks : 262144 Invalid Blocks : 0
Heartbeat CPU 1 instructions: 280000000 cycles: 610369924 heartbeat IPC: 0.184695 cumulative IPC: 0.189287 (Simulation time: 87 hr 19 min 27 sec) 
 Total Blocks : 262144 Invalid Blocks : 0
Heartbeat CPU 2 instructions: 280000000 cycles: 610562609 heartbeat IPC: 0.185 cumulative IPC: 0.189193 (Simulation time: 87 hr 19 min 46 sec) 
 Total Blocks : 262144 Invalid Blocks : 0
Heartbeat CPU 0 instructions: 280000000 cycles: 610919595 heartbeat IPC: 0.184889 cumulative IPC: 0.189038 (Simulation time: 87 hr 20 min 18 sec) 
 Total Blocks : 262144 Invalid Blocks : 0
Heartbeat CPU 6 instructions: 280000000 cycles: 611082615 heartbeat IPC: 0.184378 cumulative IPC: 0.188966 (Simulation time: 87 hr 20 min 38 sec) 
 Total Blocks : 262144 Invalid Blocks : 0
Heartbeat CPU 7 instructions: 280000000 cycles: 611105408 heartbeat IPC: 0.184316 cumulative IPC: 0.188976 (Simulation time: 87 hr 20 min 40 sec) 
 Total Blocks : 262144 Invalid Blocks : 0
Heartbeat CPU 5 instructions: 290000001 cycles: 662435424 heartbeat IPC: 0.188022 cumulative IPC: 0.189587 (Simulation time: 88 hr 51 min 32 sec) 
 Total Blocks : 262144 Invalid Blocks : 0
Heartbeat CPU 4 instructions: 290000001 cycles: 662911747 heartbeat IPC: 0.188129 cumulative IPC: 0.189395 (Simulation time: 88 hr 52 min 23 sec) 
 Total Blocks : 262144 Invalid Blocks : 0
Heartbeat CPU 3 instructions: 290000001 cycles: 663277727 heartbeat IPC: 0.187931 cumulative IPC: 0.189247 (Simulation time: 88 hr 52 min 56 sec) 
 Total Blocks : 262144 Invalid Blocks : 0
Heartbeat CPU 1 instructions: 290000001 cycles: 663644176 heartbeat IPC: 0.187708 cumulative IPC: 0.189111 (Simulation time: 88 hr 53 min 29 sec) 
 Total Blocks : 262144 Invalid Blocks : 0
Heartbeat CPU 2 instructions: 290000001 cycles: 663876497 heartbeat IPC: 0.187568 cumulative IPC: 0.189011 (Simulation time: 88 hr 53 min 46 sec) 
 Total Blocks : 262144 Invalid Blocks : 0
Heartbeat CPU 0 instructions: 290000001 cycles: 664215281 heartbeat IPC: 0.187632 cumulative IPC: 0.188881 (Simulation time: 88 hr 54 min 21 sec) 
 Total Blocks : 262144 Invalid Blocks : 0
Heartbeat CPU 6 instructions: 290000001 cycles: 664350386 heartbeat IPC: 0.187731 cumulative IPC: 0.188828 (Simulation time: 88 hr 54 min 32 sec) 
 Total Blocks : 262144 Invalid Blocks : 0
Heartbeat CPU 7 instructions: 290000001 cycles: 664429199 heartbeat IPC: 0.187534 cumulative IPC: 0.188815 (Simulation time: 88 hr 54 min 39 sec) 
 Total Blocks : 262144 Invalid Blocks : 0
Heartbeat CPU 5 instructions: 300000002 cycles: 714276878 heartbeat IPC: 0.192896 cumulative IPC: 0.189913 (Simulation time: 90 hr 19 min 21 sec) 
 Total Blocks : 262144 Invalid Blocks : 0
Heartbeat CPU 4 instructions: 300000002 cycles: 714669106 heartbeat IPC: 0.193209 cumulative IPC: 0.18977 (Simulation time: 90 hr 19 min 55 sec) 
 Total Blocks : 262144 Invalid Blocks : 0
Heartbeat CPU 3 instructions: 300000002 cycles: 714961112 heartbeat IPC: 0.193486 cumulative IPC: 0.189662 (Simulation time: 90 hr 20 min 22 sec) 
 Total Blocks : 262144 Invalid Blocks : 0
Heartbeat CPU 1 instructions: 300000002 cycles: 715411357 heartbeat IPC: 0.193173 cumulative IPC: 0.189509 (Simulation time: 90 hr 21 min 11 sec) 
 Total Blocks : 262144 Invalid Blocks : 0
Heartbeat CPU 2 instructions: 300000002 cycles: 715526741 heartbeat IPC: 0.19361 cumulative IPC: 0.189461 (Simulation time: 90 hr 21 min 24 sec) 
 Total Blocks : 262144 Invalid Blocks : 0
Heartbeat CPU 0 instructions: 300000002 cycles: 715880706 heartbeat IPC: 0.193553 cumulative IPC: 0.189338 (Simulation time: 90 hr 22 min 1 sec) 
 Total Blocks : 262144 Invalid Blocks : 0
Heartbeat CPU 6 instructions: 300000002 cycles: 716052286 heartbeat IPC: 0.193417 cumulative IPC: 0.189277 (Simulation time: 90 hr 22 min 22 sec) 
 Total Blocks : 262144 Invalid Blocks : 0
Heartbeat CPU 7 instructions: 300000002 cycles: 716163416 heartbeat IPC: 0.193296 cumulative IPC: 0.189254 (Simulation time: 90 hr 22 min 36 sec) 
 Total Blocks : 262144 Invalid Blocks : 0
Heartbeat CPU 5 instructions: 310000000 cycles: 767485867 heartbeat IPC: 0.187938 cumulative IPC: 0.189732 (Simulation time: 91 hr 51 min 40 sec) 
 Total Blocks : 262144 Invalid Blocks : 0
Heartbeat CPU 4 instructions: 310000000 cycles: 767872258 heartbeat IPC: 0.187959 cumulative IPC: 0.189604 (Simulation time: 91 hr 52 min 19 sec) 
 Total Blocks : 262144 Invalid Blocks : 0
Heartbeat CPU 3 instructions: 310000000 cycles: 768233039 heartbeat IPC: 0.187716 cumulative IPC: 0.189484 (Simulation time: 91 hr 52 min 53 sec) 
 Total Blocks : 262144 Invalid Blocks : 0
Heartbeat CPU 1 instructions: 310000000 cycles: 768786699 heartbeat IPC: 0.187352 cumulative IPC: 0.189311 (Simulation time: 91 hr 53 min 48 sec) 
 Total Blocks : 262144 Invalid Blocks : 0
Heartbeat CPU 2 instructions: 310000000 cycles: 768818942 heartbeat IPC: 0.187645 cumulative IPC: 0.189294 (Simulation time: 91 hr 53 min 54 sec) 
 Total Blocks : 262144 Invalid Blocks : 0
Heartbeat CPU 0 instructions: 310000000 cycles: 769188251 heartbeat IPC: 0.187591 cumulative IPC: 0.189178 (Simulation time: 91 hr 54 min 29 sec) 
 Total Blocks : 262144 Invalid Blocks : 0
Heartbeat CPU 6 instructions: 310000000 cycles: 769289180 heartbeat IPC: 0.18784 cumulative IPC: 0.189146 (Simulation time: 91 hr 54 min 38 sec) 
 Total Blocks : 262144 Invalid Blocks : 0
Heartbeat CPU 7 instructions: 310000000 cycles: 769438027 heartbeat IPC: 0.187707 cumulative IPC: 0.189112 (Simulation time: 91 hr 54 min 55 sec) 
 Total Blocks : 262144 Invalid Blocks : 0
Heartbeat CPU 5 instructions: 320000000 cycles: 820254160 heartbeat IPC: 0.189508 cumulative IPC: 0.189713 (Simulation time: 93 hr 24 min 16 sec) 
 Total Blocks : 262144 Invalid Blocks : 0
Heartbeat CPU 4 instructions: 320000000 cycles: 820427067 heartbeat IPC: 0.190278 cumulative IPC: 0.18966 (Simulation time: 93 hr 24 min 34 sec) 
 Total Blocks : 262144 Invalid Blocks : 0
Heartbeat CPU 3 instructions: 320000000 cycles: 820864298 heartbeat IPC: 0.190001 cumulative IPC: 0.189527 (Simulation time: 93 hr 25 min 30 sec) 
 Total Blocks : 262144 Invalid Blocks : 0
Heartbeat CPU 2 instructions: 320000000 cycles: 821521908 heartbeat IPC: 0.189743 cumulative IPC: 0.189332 (Simulation time: 93 hr 26 min 39 sec) 
 Total Blocks : 262144 Invalid Blocks : 0
Heartbeat CPU 1 instructions: 320000000 cycles: 821525791 heartbeat IPC: 0.189613 cumulative IPC: 0.189336 (Simulation time: 93 hr 26 min 40 sec) 
 Total Blocks : 262144 Invalid Blocks : 0
Heartbeat CPU 0 instructions: 320000000 cycles: 821718380 heartbeat IPC: 0.190367 cumulative IPC: 0.189276 (Simulation time: 93 hr 26 min 59 sec) 
 Total Blocks : 262144 Invalid Blocks : 0
Heartbeat CPU 6 instructions: 320000000 cycles: 821904904 heartbeat IPC: 0.190057 cumulative IPC: 0.189221 (Simulation time: 93 hr 27 min 15 sec) 
 Total Blocks : 262144 Invalid Blocks : 0
Heartbeat CPU 7 instructions: 320000000 cycles: 821982374 heartbeat IPC: 0.190315 cumulative IPC: 0.189212 (Simulation time: 93 hr 27 min 26 sec) 
 Total Blocks : 262144 Invalid Blocks : 0
Heartbeat CPU 5 instructions: 330000000 cycles: 872662749 heartbeat IPC: 0.190808 cumulative IPC: 0.189797 (Simulation time: 95 hr 1 min 15 sec) 
 Total Blocks : 262144 Invalid Blocks : 0
Heartbeat CPU 4 instructions: 330000000 cycles: 872727687 heartbeat IPC: 0.191202 cumulative IPC: 0.189777 (Simulation time: 95 hr 1 min 21 sec) 
 Total Blocks : 262144 Invalid Blocks : 0
Heartbeat CPU 3 instructions: 330000000 cycles: 873232659 heartbeat IPC: 0.190955 cumulative IPC: 0.189636 (Simulation time: 95 hr 2 min 46 sec) 
 Total Blocks : 262144 Invalid Blocks : 0
Heartbeat CPU 1 instructions: 330000000 cycles: 874049572 heartbeat IPC: 0.19039 cumulative IPC: 0.189417 (Simulation time: 95 hr 4 min 12 sec) 
 Total Blocks : 262144 Invalid Blocks : 0
Heartbeat CPU 2 instructions: 330000000 cycles: 874092450 heartbeat IPC: 0.190221 cumulative IPC: 0.1894 (Simulation time: 95 hr 4 min 22 sec) 
 Total Blocks : 262144 Invalid Blocks : 0
Heartbeat CPU 0 instructions: 330000000 cycles: 874134382 heartbeat IPC: 0.190781 cumulative IPC: 0.189391 (Simulation time: 95 hr 4 min 28 sec) 
 Total Blocks : 262144 Invalid Blocks : 0
Heartbeat CPU 6 instructions: 330000000 cycles: 874287308 heartbeat IPC: 0.190904 cumulative IPC: 0.18935 (Simulation time: 95 hr 4 min 41 sec) 
 Total Blocks : 262144 Invalid Blocks : 0
Heartbeat CPU 7 instructions: 330000000 cycles: 874441707 heartbeat IPC: 0.190624 cumulative IPC: 0.18932 (Simulation time: 95 hr 4 min 52 sec) 
 Total Blocks : 262144 Invalid Blocks : 0
Heartbeat CPU 5 instructions: 340000000 cycles: 923335518 heartbeat IPC: 0.197345 cumulative IPC: 0.190317 (Simulation time: 96 hr 16 min 56 sec) 
 Total Blocks : 262144 Invalid Blocks : 0
Heartbeat CPU 4 instructions: 340000000 cycles: 923370830 heartbeat IPC: 0.19746 cumulative IPC: 0.190306 (Simulation time: 96 hr 16 min 58 sec) 
 Total Blocks : 262144 Invalid Blocks : 0
Heartbeat CPU 3 instructions: 340000000 cycles: 923929034 heartbeat IPC: 0.197253 cumulative IPC: 0.19016 (Simulation time: 96 hr 17 min 39 sec) 
 Total Blocks : 262144 Invalid Blocks : 0
Heartbeat CPU 2 instructions: 340000000 cycles: 924851303 heartbeat IPC: 0.19701 cumulative IPC: 0.189924 (Simulation time: 96 hr 18 min 50 sec) 
 Total Blocks : 262144 Invalid Blocks : 0
Heartbeat CPU 1 instructions: 340000000 cycles: 924873956 heartbeat IPC: 0.196756 cumulative IPC: 0.189923 (Simulation time: 96 hr 18 min 52 sec) 
 Total Blocks : 262144 Invalid Blocks : 0
Heartbeat CPU 0 instructions: 340000000 cycles: 924904156 heartbeat IPC: 0.196968 cumulative IPC: 0.189913 (Simulation time: 96 hr 18 min 54 sec) 
 Total Blocks : 262144 Invalid Blocks : 0
Heartbeat CPU 6 instructions: 340000000 cycles: 924943951 heartbeat IPC: 0.197407 cumulative IPC: 0.189903 (Simulation time: 96 hr 18 min 56 sec) 
 Total Blocks : 262144 Invalid Blocks : 0
Heartbeat CPU 7 instructions: 340000000 cycles: 925010820 heartbeat IPC: 0.197749 cumulative IPC: 0.189898 (Simulation time: 96 hr 18 min 59 sec) 
 Total Blocks : 262144 Invalid Blocks : 0
Heartbeat CPU 5 instructions: 350000000 cycles: 975969253 heartbeat IPC: 0.189992 cumulative IPC: 0.190295 (Simulation time: 97 hr 29 min 9 sec) 
 Total Blocks : 262144 Invalid Blocks : 0
Heartbeat CPU 4 instructions: 350000000 cycles: 975980787 heartbeat IPC: 0.190078 cumulative IPC: 0.190291 (Simulation time: 97 hr 29 min 10 sec) 
 Total Blocks : 262144 Invalid Blocks : 0
Heartbeat CPU 3 instructions: 350000000 cycles: 976442279 heartbeat IPC: 0.190428 cumulative IPC: 0.190178 (Simulation time: 97 hr 29 min 43 sec) 
 Total Blocks : 262144 Invalid Blocks : 0
Heartbeat CPU 2 instructions: 350000000 cycles: 977475144 heartbeat IPC: 0.190028 cumulative IPC: 0.189931 (Simulation time: 97 hr 31 min 7 sec) 
 Total Blocks : 262144 Invalid Blocks : 0
Heartbeat CPU 0 instructions: 350000000 cycles: 977591015 heartbeat IPC: 0.189801 cumulative IPC: 0.189905 (Simulation time: 97 hr 31 min 17 sec) 
 Total Blocks : 262144 Invalid Blocks : 0
Heartbeat CPU 1 instructions: 350000000 cycles: 977766024 heartbeat IPC: 0.189064 cumulative IPC: 0.189865 (Simulation time: 97 hr 31 min 33 sec) 
 Total Blocks : 262144 Invalid Blocks : 0
Heartbeat CPU 6 instructions: 350000000 cycles: 977788788 heartbeat IPC: 0.189233 cumulative IPC: 0.189859 (Simulation time: 97 hr 31 min 34 sec) 
 Total Blocks : 262144 Invalid Blocks : 0
Heartbeat CPU 7 instructions: 350000000 cycles: 977802175 heartbeat IPC: 0.189425 cumulative IPC: 0.189866 (Simulation time: 97 hr 31 min 35 sec) 
 Total Blocks : 262144 Invalid Blocks : 0
Heartbeat CPU 5 instructions: 360000000 cycles: 1027820192 heartbeat IPC: 0.192861 cumulative IPC: 0.190454 (Simulation time: 98 hr 38 min 12 sec) 
 Total Blocks : 262144 Invalid Blocks : 0
Heartbeat CPU 4 instructions: 360000000 cycles: 1027840392 heartbeat IPC: 0.192828 cumulative IPC: 0.190448 (Simulation time: 98 hr 38 min 14 sec) 
 Total Blocks : 262144 Invalid Blocks : 0
Heartbeat CPU 3 instructions: 360000000 cycles: 1028201304 heartbeat IPC: 0.193203 cumulative IPC: 0.190365 (Simulation time: 98 hr 38 min 52 sec) 
 Total Blocks : 262144 Invalid Blocks : 0
Heartbeat CPU 2 instructions: 360000000 cycles: 1029280812 heartbeat IPC: 0.193029 cumulative IPC: 0.190121 (Simulation time: 98 hr 40 min 39 sec) 
 Total Blocks : 262144 Invalid Blocks : 0
Heartbeat CPU 0 instructions: 360000000 cycles: 1029403251 heartbeat IPC: 0.193005 cumulative IPC: 0.190096 (Simulation time: 98 hr 40 min 47 sec) 
 Total Blocks : 262144 Invalid Blocks : 0
Heartbeat CPU 6 instructions: 360000000 cycles: 1029604047 heartbeat IPC: 0.192993 cumulative IPC: 0.190052 (Simulation time: 98 hr 41 min 0 sec) 
 Total Blocks : 262144 Invalid Blocks : 0
Heartbeat CPU 1 instructions: 360000000 cycles: 1029714526 heartbeat IPC: 0.192498 cumulative IPC: 0.190028 (Simulation time: 98 hr 41 min 7 sec) 
 Total Blocks : 262144 Invalid Blocks : 0
Heartbeat CPU 7 instructions: 360000000 cycles: 1029744626 heartbeat IPC: 0.192521 cumulative IPC: 0.19003 (Simulation time: 98 hr 41 min 9 sec) 
 Total Blocks : 262144 Invalid Blocks : 0
Heartbeat CPU 5 instructions: 370000000 cycles: 1079773573 heartbeat IPC: 0.19248 cumulative IPC: 0.190572 (Simulation time: 99 hr 47 min 12 sec) 
 Total Blocks : 262144 Invalid Blocks : 0
Heartbeat CPU 4 instructions: 370000000 cycles: 1079790087 heartbeat IPC: 0.192494 cumulative IPC: 0.190567 (Simulation time: 99 hr 47 min 13 sec) 
 Total Blocks : 262144 Invalid Blocks : 0
Heartbeat CPU 3 instructions: 370000000 cycles: 1080135498 heartbeat IPC: 0.192551 cumulative IPC: 0.190492 (Simulation time: 99 hr 47 min 41 sec) 
 Total Blocks : 262144 Invalid Blocks : 0
Heartbeat CPU 0 instructions: 370000000 cycles: 1081322907 heartbeat IPC: 0.192605 cumulative IPC: 0.190242 (Simulation time: 99 hr 49 min 13 sec) 
 Total Blocks : 262144 Invalid Blocks : 0
Heartbeat CPU 2 instructions: 370000000 cycles: 1081378443 heartbeat IPC: 0.191947 cumulative IPC: 0.190228 (Simulation time: 99 hr 49 min 17 sec) 
 Total Blocks : 262144 Invalid Blocks : 0
Heartbeat CPU 6 instructions: 370000000 cycles: 1081411075 heartbeat IPC: 0.193024 cumulative IPC: 0.190224 (Simulation time: 99 hr 49 min 18 sec) 
 Total Blocks : 262144 Invalid Blocks : 0
Heartbeat CPU 1 instructions: 370000000 cycles: 1081781060 heartbeat IPC: 0.192062 cumulative IPC: 0.190146 (Simulation time: 99 hr 49 min 59 sec) 
 Total Blocks : 262144 Invalid Blocks : 0
Heartbeat CPU 7 instructions: 370000000 cycles: 1081829582 heartbeat IPC: 0.191994 cumulative IPC: 0.190144 (Simulation time: 99 hr 50 min 2 sec) 
 Total Blocks : 262144 Invalid Blocks : 0
Heartbeat CPU 4 instructions: 380000003 cycles: 1131384472 heartbeat IPC: 0.19382 cumulative IPC: 0.190745 (Simulation time: 100 hr 58 min 18 sec) 
 Total Blocks : 262144 Invalid Blocks : 0
Heartbeat CPU 5 instructions: 380000003 cycles: 1131425970 heartbeat IPC: 0.193602 cumulative IPC: 0.190737 (Simulation time: 100 hr 58 min 24 sec) 
 Total Blocks : 262144 Invalid Blocks : 0
Heartbeat CPU 3 instructions: 380000003 cycles: 1131742646 heartbeat IPC: 0.193772 cumulative IPC: 0.190671 (Simulation time: 100 hr 58 min 42 sec) 
 Total Blocks : 262144 Invalid Blocks : 0
Heartbeat CPU 0 instructions: 380000003 cycles: 1132964063 heartbeat IPC: 0.193644 cumulative IPC: 0.190428 (Simulation time: 101 hr 0 min 13 sec) 
 Total Blocks : 262144 Invalid Blocks : 0
Heartbeat CPU 6 instructions: 380000003 cycles: 1133079206 heartbeat IPC: 0.193543 cumulative IPC: 0.190405 (Simulation time: 101 hr 0 min 20 sec) 
 Total Blocks : 262144 Invalid Blocks : 0
Heartbeat CPU 2 instructions: 380000003 cycles: 1133103393 heartbeat IPC: 0.19333 cumulative IPC: 0.190398 (Simulation time: 101 hr 0 min 21 sec) 
 Total Blocks : 262144 Invalid Blocks : 0
Heartbeat CPU 1 instructions: 380000003 cycles: 1133484394 heartbeat IPC: 0.193411 cumulative IPC: 0.190325 (Simulation time: 101 hr 0 min 57 sec) 
 Total Blocks : 262144 Invalid Blocks : 0
Heartbeat CPU 7 instructions: 380000003 cycles: 1133506564 heartbeat IPC: 0.19351 cumulative IPC: 0.190328 (Simulation time: 101 hr 0 min 59 sec) 
 Total Blocks : 262144 Invalid Blocks : 0
Heartbeat CPU 4 instructions: 390000000 cycles: 1183235220 heartbeat IPC: 0.192861 cumulative IPC: 0.190855 (Simulation time: 102 hr 9 min 40 sec) 
 Total Blocks : 262144 Invalid Blocks : 0
Heartbeat CPU 5 instructions: 390000000 cycles: 1183261024 heartbeat IPC: 0.19292 cumulative IPC: 0.190851 (Simulation time: 102 hr 9 min 41 sec) 
 Total Blocks : 262144 Invalid Blocks : 0
Heartbeat CPU 3 instructions: 390000000 cycles: 1183411009 heartbeat IPC: 0.193542 cumulative IPC: 0.19082 (Simulation time: 102 hr 9 min 55 sec) 
 Total Blocks : 262144 Invalid Blocks : 0
Heartbeat CPU 0 instructions: 390000000 cycles: 1184723955 heartbeat IPC: 0.1932 cumulative IPC: 0.190572 (Simulation time: 102 hr 11 min 53 sec) 
 Total Blocks : 262144 Invalid Blocks : 0
Heartbeat CPU 6 instructions: 390000000 cycles: 1184822608 heartbeat IPC: 0.193261 cumulative IPC: 0.190554 (Simulation time: 102 hr 11 min 57 sec) 
 Total Blocks : 262144 Invalid Blocks : 0
Heartbeat CPU 2 instructions: 390000000 cycles: 1184843121 heartbeat IPC: 0.193275 cumulative IPC: 0.190547 (Simulation time: 102 hr 11 min 57 sec) 
 Total Blocks : 262144 Invalid Blocks : 0
Heartbeat CPU 1 instructions: 390000000 cycles: 1185345307 heartbeat IPC: 0.192823 cumulative IPC: 0.190455 (Simulation time: 102 hr 12 min 27 sec) 
 Total Blocks : 262144 Invalid Blocks : 0
Heartbeat CPU 7 instructions: 390000000 cycles: 1185355000 heartbeat IPC: 0.19287 cumulative IPC: 0.19046 (Simulation time: 102 hr 12 min 32 sec) 
 Total Blocks : 262144 Invalid Blocks : 0
Heartbeat CPU 5 instructions: 400000000 cycles: 1235031934 heartbeat IPC: 0.193159 cumulative IPC: 0.190965 (Simulation time: 103 hr 19 min 56 sec) 
 Total Blocks : 262144 Invalid Blocks : 0
Heartbeat CPU 4 instructions: 400000000 cycles: 1235056928 heartbeat IPC: 0.192969 cumulative IPC: 0.19096 (Simulation time: 103 hr 19 min 58 sec) 
 Total Blocks : 262144 Invalid Blocks : 0
Finished CPU 5 instructions: 200000002 cycles: 1047294831 cumulative IPC: 0.190968 (Simulation time: 103 hr 19 min 59 sec) 
Heartbeat CPU 3 instructions: 400000000 cycles: 1235082461 heartbeat IPC: 0.19353 cumulative IPC: 0.190954 (Simulation time: 103 hr 20 min 0 sec) 
 Total Blocks : 262144 Invalid Blocks : 0
Finished CPU 4 instructions: 200000003 cycles: 1047323384 cumulative IPC: 0.190963 (Simulation time: 103 hr 20 min 1 sec) 
Finished CPU 3 instructions: 200000000 cycles: 1047352984 cumulative IPC: 0.190958 (Simulation time: 103 hr 20 min 3 sec) 
Heartbeat CPU 0 instructions: 400000000 cycles: 1236399588 heartbeat IPC: 0.193515 cumulative IPC: 0.190717 (Simulation time: 103 hr 21 min 48 sec) 
 Total Blocks : 262144 Invalid Blocks : 0
Finished CPU 0 instructions: 200000000 cycles: 1048662043 cumulative IPC: 0.190719 (Simulation time: 103 hr 21 min 50 sec) 
Heartbeat CPU 6 instructions: 400000000 cycles: 1236550287 heartbeat IPC: 0.19332 cumulative IPC: 0.19069 (Simulation time: 103 hr 21 min 57 sec) 
 Total Blocks : 262144 Invalid Blocks : 0
Finished CPU 6 instructions: 200000000 cycles: 1048807689 cumulative IPC: 0.190693 (Simulation time: 103 hr 21 min 59 sec) 
Heartbeat CPU 2 instructions: 400000000 cycles: 1236603385 heartbeat IPC: 0.193198 cumulative IPC: 0.190678 (Simulation time: 103 hr 22 min 0 sec) 
 Total Blocks : 262144 Invalid Blocks : 0
Finished CPU 2 instructions: 200000000 cycles: 1048872673 cumulative IPC: 0.190681 (Simulation time: 103 hr 22 min 4 sec) 
Heartbeat CPU 1 instructions: 400000000 cycles: 1237000406 heartbeat IPC: 0.193592 cumulative IPC: 0.190609 (Simulation time: 103 hr 22 min 40 sec) 
 Total Blocks : 262144 Invalid Blocks : 0
Finished CPU 1 instructions: 200000002 cycles: 1049255563 cumulative IPC: 0.190611 (Simulation time: 103 hr 22 min 42 sec) 
Heartbeat CPU 7 instructions: 400000000 cycles: 1237033798 heartbeat IPC: 0.193503 cumulative IPC: 0.19061 (Simulation time: 103 hr 22 min 43 sec) 
 Total Blocks : 262144 Invalid Blocks : 0
Finished CPU 7 instructions: 200000003 cycles: 1049261546 cumulative IPC: 0.19061 (Simulation time: 103 hr 22 min 43 sec) 

CPU 0 Branch Prediction Accuracy: 92.9872% MPKI: 10.4672 Average ROB Occupancy at Mispredict: 86.4698

CPU 1 Branch Prediction Accuracy: 92.9878% MPKI: 10.4662 Average ROB Occupancy at Mispredict: 86.4752

CPU 2 Branch Prediction Accuracy: 92.987% MPKI: 10.4673 Average ROB Occupancy at Mispredict: 86.4674

CPU 3 Branch Prediction Accuracy: 92.9886% MPKI: 10.4649 Average ROB Occupancy at Mispredict: 86.4939

CPU 4 Branch Prediction Accuracy: 92.9884% MPKI: 10.4653 Average ROB Occupancy at Mispredict: 86.4846

CPU 5 Branch Prediction Accuracy: 92.9884% MPKI: 10.4654 Average ROB Occupancy at Mispredict: 86.4819

CPU 6 Branch Prediction Accuracy: 92.9872% MPKI: 10.4672 Average ROB Occupancy at Mispredict: 86.4734

CPU 7 Branch Prediction Accuracy: 92.9878% MPKI: 10.4667 Average ROB Occupancy at Mispredict: 86.4706

ChampSim completed all CPUs

Total Simulation Statistics (not including warmup)

CPU 0 cumulative IPC: 0.19072 instructions: 200115573 cycles: 1049261546
ITLB TOTAL     ACCESS: 32000483  HIT: 31686280  MISS: 314203  HIT %: 99.0181  MISS %: 0.98187  AVERAGE MISS PENALTY: 10.7289
ITLB LOAD      ACCESS: 32000483  HIT: 31686280  MISS: 314203  HIT %: 99.0181  MISS %: 0.98187  AVERAGE MISS PENALTY: 10.7289
ITLB RFO       ACCESS:     0  HIT:     0  MISS:     0  HIT %:     0  MISS %:     0  AVERAGE MISS PENALTY: 0
ITLB PREFETCH  ACCESS:     0  HIT:     0  MISS:     0  HIT %:     0  MISS %:     0  AVERAGE MISS PENALTY: 0
ITLB WRITEBACK ACCESS:     0  HIT:     0  MISS:     0  HIT %:     0  MISS %:     0  AVERAGE MISS PENALTY: 0

DTLB TOTAL     ACCESS: 81322388  HIT: 77169610  MISS: 4152778  HIT %: 94.8934  MISS %: 5.10656  AVERAGE MISS PENALTY: 36.3891
DTLB LOAD      ACCESS: 50050849  HIT: 46399023  MISS: 3651826  HIT %: 92.7038  MISS %: 7.29623  AVERAGE MISS PENALTY: 33.8499
DTLB RFO       ACCESS: 31271539  HIT: 30770587  MISS: 500952  HIT %: 98.3981  MISS %: 1.60194  AVERAGE MISS PENALTY: 54.8993
DTLB PREFETCH  ACCESS:     0  HIT:     0  MISS:     0  HIT %:     0  MISS %:     0  AVERAGE MISS PENALTY: 0
DTLB WRITEBACK ACCESS:     0  HIT:     0  MISS:     0  HIT %:     0  MISS %:     0  AVERAGE MISS PENALTY: 0

STLB TOTAL     ACCESS: 4466981  HIT: 3504857  MISS: 962124  HIT %: 78.4614  MISS %: 21.5386  AVERAGE MISS PENALTY: 100
STLB LOAD      ACCESS: 3966029  HIT: 3187883  MISS: 778146  HIT %: 80.3797  MISS %: 19.6203  AVERAGE MISS PENALTY: 100
STLB RFO       ACCESS: 500952  HIT: 316974  MISS: 183978  HIT %: 63.2743  MISS %: 36.7257  AVERAGE MISS PENALTY: 100
STLB PREFETCH  ACCESS:     0  HIT:     0  MISS:     0  HIT %:     0  MISS %:     0  AVERAGE MISS PENALTY: 0
STLB WRITEBACK ACCESS:     0  HIT:     0  MISS:     0  HIT %:     0  MISS %:     0  AVERAGE MISS PENALTY: 0

L1D TOTAL     ACCESS: 118128510  HIT: 110595545  MISS: 7532965  HIT %: 93.6231  MISS %: 6.37692  AVERAGE MISS PENALTY: 8.93526e+06
L1D LOAD      ACCESS: 52943341  HIT: 49829433  MISS: 3113908  HIT %: 94.1184  MISS %: 5.88159  AVERAGE MISS PENALTY: 1.68473e+07
L1D RFO       ACCESS: 36628210  HIT: 36323591  MISS: 304619  HIT %: 99.1683  MISS %: 0.831651  AVERAGE MISS PENALTY: 4.87401e+07
L1D PREFETCH  ACCESS: 28556959  HIT: 24442521  MISS: 4114438  HIT %: 85.5922  MISS %: 14.4078  AVERAGE MISS PENALTY: 194.287
L1D WRITEBACK ACCESS:     0  HIT:     0  MISS:     0  HIT %:     0  MISS %:     0  AVERAGE MISS PENALTY: 0

L1I TOTAL     ACCESS: 42335245  HIT: 42210230  MISS: 125015  HIT %: 99.7047  MISS %: 0.295298  AVERAGE MISS PENALTY: 58.3142
L1I LOAD      ACCESS: 42335245  HIT: 42210230  MISS: 125015  HIT %: 99.7047  MISS %: 0.295298  AVERAGE MISS PENALTY: 58.3142
L1I RFO       ACCESS:     0  HIT:     0  MISS:     0  HIT %:     0  MISS %:     0  AVERAGE MISS PENALTY: 0
L1I PREFETCH  ACCESS:     0  HIT:     0  MISS:     0  HIT %:     0  MISS %:     0  AVERAGE MISS PENALTY: 0
L1I WRITEBACK ACCESS:     0  HIT:     0  MISS:     0  HIT %:     0  MISS %:     0  AVERAGE MISS PENALTY: 0

L2C TOTAL     ACCESS: 12638051  HIT: 6010939  MISS: 6627112  HIT %: 47.5622  MISS %: 52.4378  AVERAGE MISS PENALTY: 8.60468e+06
L2C LOAD      ACCESS: 3233523  HIT: 1266700  MISS: 1966823  HIT %: 39.174  MISS %: 60.826  AVERAGE MISS PENALTY: 2.76729e+07
L2C RFO       ACCESS: 283801  HIT: 89342  MISS: 194459  HIT %: 31.4805  MISS %: 68.5195  AVERAGE MISS PENALTY: 1.33456e+07
L2C PREFETCH  ACCESS: 7168089  HIT: 2709651  MISS: 4458438  HIT %: 37.8016  MISS %: 62.1984  AVERAGE MISS PENALTY: 280.263
L2C WRITEBACK ACCESS: 1952638  HIT: 1945246  MISS:  7392  HIT %: 99.6214  MISS %: 0.378565  AVERAGE MISS PENALTY: 0


LLC0 TOTAL     ACCESS: 976629  HIT: 308964  MISS: 667665  HIT %: 31.6358  MISS %: 68.3642  AVERAGE MISS PENALTY: 274.148
LLC0 LOAD      ACCESS: 248161  HIT: 54381  MISS: 193780  HIT %: 21.9136  MISS %: 78.0864  AVERAGE MISS PENALTY: 285.952
LLC0 RFO       ACCESS: 26500  HIT:  7659  MISS: 18841  HIT %: 28.9019  MISS %: 71.0981  AVERAGE MISS PENALTY: 279.248
LLC0 PREFETCH  ACCESS: 516154  HIT: 93539  MISS: 422615  HIT %: 18.1223  MISS %: 81.8777  AVERAGE MISS PENALTY: 289.544
LLC0 WRITEBACK ACCESS: 185814  HIT: 153385  MISS: 32429  HIT %: 82.5476  MISS %: 17.4524  AVERAGE MISS PENALTY: 0

LLC1 TOTAL     ACCESS: 1002923  HIT: 317077  MISS: 685846  HIT %: 31.6153  MISS %: 68.3847  AVERAGE MISS PENALTY: 276.701
LLC1 LOAD      ACCESS: 238780  HIT: 52533  MISS: 186247  HIT %: 22.0006  MISS %: 77.9994  AVERAGE MISS PENALTY: 289.45
LLC1 RFO       ACCESS: 24138  HIT:  6645  MISS: 17493  HIT %: 27.5292  MISS %: 72.4708  AVERAGE MISS PENALTY: 281.189
LLC1 PREFETCH  ACCESS: 553312  HIT: 102907  MISS: 450405  HIT %: 18.5984  MISS %: 81.4016  AVERAGE MISS PENALTY: 290.73
LLC1 WRITEBACK ACCESS: 186693  HIT: 154992  MISS: 31701  HIT %: 83.0197  MISS %: 16.9803  AVERAGE MISS PENALTY: 0

LLC2 TOTAL     ACCESS: 1019319  HIT: 317116  MISS: 702203  HIT %: 31.1106  MISS %: 68.8894  AVERAGE MISS PENALTY: 282.39
LLC2 LOAD      ACCESS: 235473  HIT: 50602  MISS: 184871  HIT %: 21.4895  MISS %: 78.5105  AVERAGE MISS PENALTY: 289.084
LLC2 RFO       ACCESS: 23124  HIT:  6338  MISS: 16786  HIT %: 27.4088  MISS %: 72.5912  AVERAGE MISS PENALTY: 282.495
LLC2 PREFETCH  ACCESS: 573048  HIT: 104596  MISS: 468452  HIT %: 18.2526  MISS %: 81.7474  AVERAGE MISS PENALTY: 299.091
LLC2 WRITEBACK ACCESS: 187674  HIT: 155580  MISS: 32094  HIT %: 82.8991  MISS %: 17.1009  AVERAGE MISS PENALTY: 0

LLC3 TOTAL     ACCESS: 1018921  HIT: 316892  MISS: 702029  HIT %: 31.1007  MISS %: 68.8993  AVERAGE MISS PENALTY: 284.539
LLC3 LOAD      ACCESS: 235129  HIT: 50248  MISS: 184881  HIT %: 21.3704  MISS %: 78.6296  AVERAGE MISS PENALTY: 291.336
LLC3 RFO       ACCESS: 23345  HIT:  6343  MISS: 17002  HIT %: 27.1707  MISS %: 72.8293  AVERAGE MISS PENALTY: 284.777
LLC3 PREFETCH  ACCESS: 572500  HIT: 104846  MISS: 467654  HIT %: 18.3137  MISS %: 81.6863  AVERAGE MISS PENALTY: 301.612
LLC3 WRITEBACK ACCESS: 187947  HIT: 155455  MISS: 32492  HIT %: 82.7121  MISS %: 17.2879  AVERAGE MISS PENALTY: 0

LLC4 TOTAL     ACCESS: 1022212  HIT: 320020  MISS: 702192  HIT %: 31.3066  MISS %: 68.6934  AVERAGE MISS PENALTY: 278.208
LLC4 LOAD      ACCESS: 240112  HIT: 54502  MISS: 185610  HIT %: 22.6986  MISS %: 77.3014  AVERAGE MISS PENALTY: 289.174
LLC4 RFO       ACCESS: 23417  HIT:  6407  MISS: 17010  HIT %: 27.3605  MISS %: 72.6395  AVERAGE MISS PENALTY: 285.563
LLC4 PREFETCH  ACCESS: 573519  HIT: 104863  MISS: 468656  HIT %: 18.2841  MISS %: 81.7159  AVERAGE MISS PENALTY: 291.95
LLC4 WRITEBACK ACCESS: 185164  HIT: 154248  MISS: 30916  HIT %: 83.3034  MISS %: 16.6966  AVERAGE MISS PENALTY: 0

LLC5 TOTAL     ACCESS: 1024757  HIT: 321886  MISS: 702871  HIT %: 31.411  MISS %: 68.589  AVERAGE MISS PENALTY: 279.307
LLC5 LOAD      ACCESS: 237905  HIT: 53473  MISS: 184432  HIT %: 22.4766  MISS %: 77.5234  AVERAGE MISS PENALTY: 291.248
LLC5 RFO       ACCESS: 23528  HIT:  6370  MISS: 17158  HIT %: 27.0741  MISS %: 72.9259  AVERAGE MISS PENALTY: 285.263
LLC5 PREFETCH  ACCESS: 578462  HIT: 108255  MISS: 470207  HIT %: 18.7143  MISS %: 81.2857  AVERAGE MISS PENALTY: 292.864
LLC5 WRITEBACK ACCESS: 184862  HIT: 153788  MISS: 31074  HIT %: 83.1907  MISS %: 16.8093  AVERAGE MISS PENALTY: 0

LLC6 TOTAL     ACCESS: 1026379  HIT: 322519  MISS: 703860  HIT %: 31.423  MISS %: 68.577  AVERAGE MISS PENALTY: 285.419
LLC6 LOAD      ACCESS: 242634  HIT: 54567  MISS: 188067  HIT %: 22.4894  MISS %: 77.5106  AVERAGE MISS PENALTY: 292.515
LLC6 RFO       ACCESS: 23428  HIT:  6398  MISS: 17030  HIT %: 27.3092  MISS %: 72.6908  AVERAGE MISS PENALTY: 287.865
LLC6 PREFETCH  ACCESS: 572151  HIT: 105938  MISS: 466213  HIT %: 18.5157  MISS %: 81.4843  AVERAGE MISS PENALTY: 302.395
LLC6 WRITEBACK ACCESS: 188166  HIT: 155616  MISS: 32550  HIT %: 82.7014  MISS %: 17.2986  AVERAGE MISS PENALTY: 0

LLC7 TOTAL     ACCESS: 1021009  HIT: 315050  MISS: 705959  HIT %: 30.8567  MISS %: 69.1433  AVERAGE MISS PENALTY: 285.377
LLC7 LOAD      ACCESS: 235813  HIT: 49627  MISS: 186186  HIT %: 21.0451  MISS %: 78.9549  AVERAGE MISS PENALTY: 293.246
LLC7 RFO       ACCESS: 23357  HIT:  6365  MISS: 16992  HIT %: 27.2509  MISS %: 72.7491  AVERAGE MISS PENALTY: 289.535
LLC7 PREFETCH  ACCESS: 575720  HIT: 107688  MISS: 468032  HIT %: 18.7049  MISS %: 81.2951  AVERAGE MISS PENALTY: 303.283
LLC7 WRITEBACK ACCESS: 186119  HIT: 151370  MISS: 34749  HIT %: 81.3297  MISS %: 18.6703  AVERAGE MISS PENALTY: 0

Total Rob stall cycles : 	984491921
Total Load Rob Stall cycles : 	348713663
Average Rob Stall cycles : 	 13
Average Load Rob Stall cycles : 	 35

CPU 1 cumulative IPC: 0.190612 instructions: 200001537 cycles: 1049261546
ITLB TOTAL     ACCESS: 31978821  HIT: 31664797  MISS: 314024  HIT %: 99.018  MISS %: 0.981975  AVERAGE MISS PENALTY: 10.7288
ITLB LOAD      ACCESS: 31978821  HIT: 31664797  MISS: 314024  HIT %: 99.018  MISS %: 0.981975  AVERAGE MISS PENALTY: 10.7288
ITLB RFO       ACCESS:     0  HIT:     0  MISS:     0  HIT %:     0  MISS %:     0  AVERAGE MISS PENALTY: 0
ITLB PREFETCH  ACCESS:     0  HIT:     0  MISS:     0  HIT %:     0  MISS %:     0  AVERAGE MISS PENALTY: 0
ITLB WRITEBACK ACCESS:     0  HIT:     0  MISS:     0  HIT %:     0  MISS %:     0  AVERAGE MISS PENALTY: 0

DTLB TOTAL     ACCESS: 81273005  HIT: 77122617  MISS: 4150388  HIT %: 94.8933  MISS %: 5.10672  AVERAGE MISS PENALTY: 36.3783
DTLB LOAD      ACCESS: 50018784  HIT: 46369070  MISS: 3649714  HIT %: 92.7033  MISS %: 7.29669  AVERAGE MISS PENALTY: 33.8462
DTLB RFO       ACCESS: 31254221  HIT: 30753547  MISS: 500674  HIT %: 98.3981  MISS %: 1.60194  AVERAGE MISS PENALTY: 54.8361
DTLB PREFETCH  ACCESS:     0  HIT:     0  MISS:     0  HIT %:     0  MISS %:     0  AVERAGE MISS PENALTY: 0
DTLB WRITEBACK ACCESS:     0  HIT:     0  MISS:     0  HIT %:     0  MISS %:     0  AVERAGE MISS PENALTY: 0

STLB TOTAL     ACCESS: 4464412  HIT: 3502835  MISS: 961577  HIT %: 78.4613  MISS %: 21.5387  AVERAGE MISS PENALTY: 100
STLB LOAD      ACCESS: 3963738  HIT: 3185967  MISS: 777771  HIT %: 80.3778  MISS %: 19.6222  AVERAGE MISS PENALTY: 100
STLB RFO       ACCESS: 500674  HIT: 316868  MISS: 183806  HIT %: 63.2883  MISS %: 36.7117  AVERAGE MISS PENALTY: 100
STLB PREFETCH  ACCESS:     0  HIT:     0  MISS:     0  HIT %:     0  MISS %:     0  AVERAGE MISS PENALTY: 0
STLB WRITEBACK ACCESS:     0  HIT:     0  MISS:     0  HIT %:     0  MISS %:     0  AVERAGE MISS PENALTY: 0

L1D TOTAL     ACCESS: 118055454  HIT: 110527080  MISS: 7528374  HIT %: 93.623  MISS %: 6.37698  AVERAGE MISS PENALTY: 8.96187e+06
L1D LOAD      ACCESS: 52909941  HIT: 49797270  MISS: 3112671  HIT %: 94.117  MISS %: 5.88296  AVERAGE MISS PENALTY: 1.69469e+07
L1D RFO       ACCESS: 36607176  HIT: 36302956  MISS: 304220  HIT %: 99.169  MISS %: 0.831039  AVERAGE MISS PENALTY: 4.83772e+07
L1D PREFETCH  ACCESS: 28538337  HIT: 24426854  MISS: 4111483  HIT %: 85.5931  MISS %: 14.4069  AVERAGE MISS PENALTY: 194.349
L1D WRITEBACK ACCESS:     0  HIT:     0  MISS:     0  HIT %:     0  MISS %:     0  AVERAGE MISS PENALTY: 0

L1I TOTAL     ACCESS: 42307889  HIT: 42183069  MISS: 124820  HIT %: 99.705  MISS %: 0.295028  AVERAGE MISS PENALTY: 58.4019
L1I LOAD      ACCESS: 42307889  HIT: 42183069  MISS: 124820  HIT %: 99.705  MISS %: 0.295028  AVERAGE MISS PENALTY: 58.4019
L1I RFO       ACCESS:     0  HIT:     0  MISS:     0  HIT %:     0  MISS %:     0  AVERAGE MISS PENALTY: 0
L1I PREFETCH  ACCESS:     0  HIT:     0  MISS:     0  HIT %:     0  MISS %:     0  AVERAGE MISS PENALTY: 0
L1I WRITEBACK ACCESS:     0  HIT:     0  MISS:     0  HIT %:     0  MISS %:     0  AVERAGE MISS PENALTY: 0

L2C TOTAL     ACCESS: 12631087  HIT: 5989413  MISS: 6641674  HIT %: 47.418  MISS %: 52.582  AVERAGE MISS PENALTY: 8.62195e+06
L2C LOAD      ACCESS: 3231901  HIT: 1257750  MISS: 1974151  HIT %: 38.9167  MISS %: 61.0833  AVERAGE MISS PENALTY: 2.77283e+07
L2C RFO       ACCESS: 283537  HIT: 89944  MISS: 193593  HIT %: 31.7221  MISS %: 68.2779  AVERAGE MISS PENALTY: 1.3033e+07
L2C PREFETCH  ACCESS: 7163959  HIT: 2697196  MISS: 4466763  HIT %: 37.6495  MISS %: 62.3505  AVERAGE MISS PENALTY: 279.822
L2C WRITEBACK ACCESS: 1951690  HIT: 1944523  MISS:  7167  HIT %: 99.6328  MISS %: 0.36722  AVERAGE MISS PENALTY: 0


LLC0 TOTAL     ACCESS: 978582  HIT: 312178  MISS: 666404  HIT %: 31.9011  MISS %: 68.0989  AVERAGE MISS PENALTY: 274.154
LLC0 LOAD      ACCESS: 249385  HIT: 55823  MISS: 193562  HIT %: 22.3843  MISS %: 77.6157  AVERAGE MISS PENALTY: 285.819
LLC0 RFO       ACCESS: 26372  HIT:  7594  MISS: 18778  HIT %: 28.7957  MISS %: 71.2043  AVERAGE MISS PENALTY: 278.46
LLC0 PREFETCH  ACCESS: 516929  HIT: 94809  MISS: 422120  HIT %: 18.3408  MISS %: 81.6592  AVERAGE MISS PENALTY: 289.36
LLC0 WRITEBACK ACCESS: 185896  HIT: 153952  MISS: 31944  HIT %: 82.8162  MISS %: 17.1838  AVERAGE MISS PENALTY: 0

LLC1 TOTAL     ACCESS: 1004474  HIT: 318842  MISS: 685632  HIT %: 31.7422  MISS %: 68.2578  AVERAGE MISS PENALTY: 276.757
LLC1 LOAD      ACCESS: 239649  HIT: 53401  MISS: 186248  HIT %: 22.283  MISS %: 77.717  AVERAGE MISS PENALTY: 289.104
LLC1 RFO       ACCESS: 24039  HIT:  6516  MISS: 17523  HIT %: 27.106  MISS %: 72.894  AVERAGE MISS PENALTY: 282.073
LLC1 PREFETCH  ACCESS: 554091  HIT: 103855  MISS: 450236  HIT %: 18.7433  MISS %: 81.2567  AVERAGE MISS PENALTY: 290.882
LLC1 WRITEBACK ACCESS: 186695  HIT: 155070  MISS: 31625  HIT %: 83.0606  MISS %: 16.9394  AVERAGE MISS PENALTY: 0

LLC2 TOTAL     ACCESS: 1021012  HIT: 318789  MISS: 702223  HIT %: 31.2228  MISS %: 68.7772  AVERAGE MISS PENALTY: 282.603
LLC2 LOAD      ACCESS: 236185  HIT: 51481  MISS: 184704  HIT %: 21.7969  MISS %: 78.2031  AVERAGE MISS PENALTY: 288.69
LLC2 RFO       ACCESS: 23037  HIT:  6162  MISS: 16875  HIT %: 26.7483  MISS %: 73.2517  AVERAGE MISS PENALTY: 283.974
LLC2 PREFETCH  ACCESS: 574126  HIT: 105417  MISS: 468709  HIT %: 18.3613  MISS %: 81.6387  AVERAGE MISS PENALTY: 299.409
LLC2 WRITEBACK ACCESS: 187664  HIT: 155729  MISS: 31935  HIT %: 82.9829  MISS %: 17.0171  AVERAGE MISS PENALTY: 0

LLC3 TOTAL     ACCESS: 1021877  HIT: 319559  MISS: 702318  HIT %: 31.2718  MISS %: 68.7282  AVERAGE MISS PENALTY: 284.749
[...]
LLC2 TOTAL     ACCESS: 1018917  HIT: 317045  MISS: 701872  HIT %: 31.1159  MISS %: 68.8841  AVERAGE MISS PENALTY: 282.999
LLC2 LOAD      ACCESS: 234747  HIT: 50294  MISS: 184453  HIT %: 21.4248  MISS %: 78.5752  AVERAGE MISS PENALTY: 289.551
LLC2 RFO       ACCESS: 23053  HIT:  6240  MISS: 16813  HIT %: 27.0681  MISS %: 72.9319  AVERAGE MISS PENALTY: 283.4
LLC2 PREFETCH  ACCESS: 573717  HIT: 105793  MISS: 467924  HIT %: 18.4399  MISS %: 81.5601  AVERAGE MISS PENALTY: 300.168
LLC2 WRITEBACK ACCESS: 187400  HIT: 154718  MISS: 32682  HIT %: 82.5603  MISS %: 17.4397  AVERAGE MISS PENALTY: 0
LLC2 PREFETCH  REQUESTED:     0  ISSUED:     0  USEFUL: 77688  USELESS: 3663124
 USEFUL LOAD PREFETCHES:      77688 PREFETCH ISSUED TO LOWER LEVEL:    3746934  ACCURACY: 2.07338
 TIMELY PREFETCHES:      77688 LATE PREFETCHES: 0 DROPPED PREFETCHES: 0
LLC2 AVERAGE MISS LATENCY: 282.999 cycles
LLC3 TOTAL     ACCESS: 1020381  HIT: 318294  MISS: 702087  HIT %: 31.1936  MISS %: 68.8064  AVERAGE MISS PENALTY: 284.797
LLC3 LOAD      ACCESS: 235515  HIT: 50940  MISS: 184575  HIT %: 21.6292  MISS %: 78.3708  AVERAGE MISS PENALTY: 291.32
LLC3 RFO       ACCESS: 23318  HIT:  6364  MISS: 16954  HIT %: 27.2922  MISS %: 72.7078  AVERAGE MISS PENALTY: 287.886
LLC3 PREFETCH  ACCESS: 573874  HIT: 106085  MISS: 467789  HIT %: 18.4858  MISS %: 81.5142  AVERAGE MISS PENALTY: 302.062
LLC3 WRITEBACK ACCESS: 187674  HIT: 154905  MISS: 32769  HIT %: 82.5394  MISS %: 17.4606  AVERAGE MISS PENALTY: 0
LLC3 PREFETCH  REQUESTED:     0  ISSUED:     0  USEFUL: 78086  USELESS: 3659846
 USEFUL LOAD PREFETCHES:      78086 PREFETCH ISSUED TO LOWER LEVEL:    3743779  ACCURACY: 2.08575
 TIMELY PREFETCHES:      78086 LATE PREFETCHES: 0 DROPPED PREFETCHES: 0
LLC3 AVERAGE MISS LATENCY: 284.797 cycles
LLC4 TOTAL     ACCESS: 1021692  HIT: 319896  MISS: 701796  HIT %: 31.3104  MISS %: 68.6896  AVERAGE MISS PENALTY: 546.601
LLC4 LOAD      ACCESS: 239528  HIT: 54002  MISS: 185526  HIT %: 22.5452  MISS %: 77.4548  AVERAGE MISS PENALTY: 290.363
LLC4 RFO       ACCESS: 23318  HIT:  6379  MISS: 16939  HIT %: 27.3565  MISS %: 72.6435  AVERAGE MISS PENALTY: 284.013
LLC4 PREFETCH  ACCESS: 573764  HIT: 105391  MISS: 468373  HIT %: 18.3684  MISS %: 81.6316  AVERAGE MISS PENALTY: 693.724
LLC4 WRITEBACK ACCESS: 185082  HIT: 154124  MISS: 30958  HIT %: 83.2734  MISS %: 16.7266  AVERAGE MISS PENALTY: 0
LLC4 PREFETCH  REQUESTED:     0  ISSUED:     0  USEFUL: 80124  USELESS: 3661014
 USEFUL LOAD PREFETCHES:      80124 PREFETCH ISSUED TO LOWER LEVEL:    3746857  ACCURACY: 2.13843
 TIMELY PREFETCHES:      80124 LATE PREFETCHES: 0 DROPPED PREFETCHES: 0
LLC4 AVERAGE MISS LATENCY: 279.042 cycles
LLC5 TOTAL     ACCESS: 1019920  HIT: 317738  MISS: 702182  HIT %: 31.1532  MISS %: 68.8468  AVERAGE MISS PENALTY: 279.619
LLC5 LOAD      ACCESS: 234240  HIT: 50039  MISS: 184201  HIT %: 21.3623  MISS %: 78.6377  AVERAGE MISS PENALTY: 291.879
LLC5 RFO       ACCESS: 23426  HIT:  6336  MISS: 17090  HIT %: 27.0469  MISS %: 72.9531  AVERAGE MISS PENALTY: 285.204
LLC5 PREFETCH  ACCESS: 577598  HIT: 108060  MISS: 469538  HIT %: 18.7085  MISS %: 81.2915  AVERAGE MISS PENALTY: 293.277
LLC5 WRITEBACK ACCESS: 184656  HIT: 153303  MISS: 31353  HIT %: 83.0209  MISS %: 16.9791  AVERAGE MISS PENALTY: 0
LLC5 PREFETCH  REQUESTED:     0  ISSUED:     0  USEFUL: 78412  USELESS: 3672200
 USEFUL LOAD PREFETCHES:      78412 PREFETCH ISSUED TO LOWER LEVEL:    3756919  ACCURACY: 2.08714
 TIMELY PREFETCHES:      78412 LATE PREFETCHES: 0 DROPPED PREFETCHES: 0
LLC5 AVERAGE MISS LATENCY: 279.619 cycles
LLC6 TOTAL     ACCESS: 1022680  HIT: 319641  MISS: 703039  HIT %: 31.2552  MISS %: 68.7448  AVERAGE MISS PENALTY: 285.901
LLC6 LOAD      ACCESS: 241124  HIT: 53365  MISS: 187759  HIT %: 22.1318  MISS %: 77.8682  AVERAGE MISS PENALTY: 293.708
LLC6 RFO       ACCESS: 23331  HIT:  6359  MISS: 16972  HIT %: 27.2556  MISS %: 72.7444  AVERAGE MISS PENALTY: 287.686
LLC6 PREFETCH  ACCESS: 570067  HIT: 104795  MISS: 465272  HIT %: 18.3829  MISS %: 81.6171  AVERAGE MISS PENALTY: 302.985
LLC6 WRITEBACK ACCESS: 188158  HIT: 155122  MISS: 33036  HIT %: 82.4424  MISS %: 17.5576  AVERAGE MISS PENALTY: 0
LLC6 PREFETCH  REQUESTED:     0  ISSUED:     0  USEFUL: 79955  USELESS: 3640940
 USEFUL LOAD PREFETCHES:      79955 PREFETCH ISSUED TO LOWER LEVEL:    3727150  ACCURACY: 2.1452
 TIMELY PREFETCHES:      79955 LATE PREFETCHES: 0 DROPPED PREFETCHES: 0
LLC6 AVERAGE MISS LATENCY: 285.901 cycles
LLC7 TOTAL     ACCESS: 1019595  HIT: 313761  MISS: 705834  HIT %: 30.7731  MISS %: 69.2269  AVERAGE MISS PENALTY: 285.42
LLC7 LOAD      ACCESS: 234845  HIT: 49265  MISS: 185580  HIT %: 20.9777  MISS %: 79.0223  AVERAGE MISS PENALTY: 293.113
LLC7 RFO       ACCESS: 23286  HIT:  6219  MISS: 17067  HIT %: 26.707  MISS %: 73.293  AVERAGE MISS PENALTY: 288.416
LLC7 PREFETCH  ACCESS: 575720  HIT: 107524  MISS: 468196  HIT %: 18.6764  MISS %: 81.3236  AVERAGE MISS PENALTY: 303.592
LLC7 WRITEBACK ACCESS: 185744  HIT: 150753  MISS: 34991  HIT %: 81.1617  MISS %: 18.8383  AVERAGE MISS PENALTY: 0
LLC7 PREFETCH  REQUESTED:     0  ISSUED:     0  USEFUL: 78705  USELESS: 3659010
 USEFUL LOAD PREFETCHES:      78705 PREFETCH ISSUED TO LOWER LEVEL:    3744164  ACCURACY: 2.10207
 TIMELY PREFETCHES:      78705 LATE PREFETCHES: 0 DROPPED PREFETCHES: 0
LLC7 AVERAGE MISS LATENCY: 285.42 cycles
ROI Average ROB Stall Cycles:	13.6726
ROI Total ROB Stalls Cycles:	984054867
ROI TOTAL ROB counter      :	71972922
ROI Average Load ROB Stall Cycles:	35.5403
ROI Total Load ROB Stalls Cycle  :	348960581
ROI Total Load ROB stalls Counter:	9818735
Major fault: 0 Minor fault: 54306

CPU 7 cumulative IPC: 0.19061 instructions: 200000003 cycles: 1049261546
ITLB TOTAL     ACCESS: 31982736  HIT: 31668739  MISS: 313997  HIT %: 99.0182  MISS %: 0.98177  AVERAGE MISS PENALTY: 10.7318
ITLB LOAD      ACCESS: 31982736  HIT: 31668739  MISS: 313997  HIT %: 99.0182  MISS %: 0.98177  AVERAGE MISS PENALTY: 10.7318
ITLB RFO       ACCESS:     0  HIT:     0  MISS:     0  HIT %:     0  MISS %:     0  AVERAGE MISS PENALTY: 0
ITLB PREFETCH  ACCESS:     0  HIT:     0  MISS:     0  HIT %:     0  MISS %:     0  AVERAGE MISS PENALTY: 0
ITLB WRITEBACK ACCESS:     0  HIT:     0  MISS:     0  HIT %:     0  MISS %:     0  AVERAGE MISS PENALTY: 0
ITLB PREFETCH  REQUESTED:     0  ISSUED:     0  USEFUL:     0  USELESS:     0
 USEFUL LOAD PREFETCHES:          0 PREFETCH ISSUED TO LOWER LEVEL:          0  ACCURACY: -nan
 TIMELY PREFETCHES:          0 LATE PREFETCHES: 0 DROPPED PREFETCHES: 0
ITLB AVERAGE MISS LATENCY: 10.7318 cycles
DTLB TOTAL     ACCESS: 81270363  HIT: 77119868  MISS: 4150495  HIT %: 94.893  MISS %: 5.10702  AVERAGE MISS PENALTY: 36.3332
DTLB LOAD      ACCESS: 50016428  HIT: 46365959  MISS: 3650469  HIT %: 92.7015  MISS %: 7.29854  AVERAGE MISS PENALTY: 33.8315
DTLB RFO       ACCESS: 31253935  HIT: 30753909  MISS: 500026  HIT %: 98.4001  MISS %: 1.59988  AVERAGE MISS PENALTY: 54.5971
DTLB PREFETCH  ACCESS:     0  HIT:     0  MISS:     0  HIT %:     0  MISS %:     0  AVERAGE MISS PENALTY: 0
DTLB WRITEBACK ACCESS:     0  HIT:     0  MISS:     0  HIT %:     0  MISS %:     0  AVERAGE MISS PENALTY: 0
DTLB PREFETCH  REQUESTED:     0  ISSUED:     0  USEFUL:     0  USELESS:     0
 USEFUL LOAD PREFETCHES:          0 PREFETCH ISSUED TO LOWER LEVEL:          0  ACCURACY: -nan
 TIMELY PREFETCHES:          0 LATE PREFETCHES: 0 DROPPED PREFETCHES: 0
DTLB AVERAGE MISS LATENCY: 36.3332 cycles
STLB TOTAL     ACCESS: 4464492  HIT: 3502856  MISS: 961636  HIT %: 78.4603  MISS %: 21.5397  AVERAGE MISS PENALTY: 100
STLB LOAD      ACCESS: 3964466  HIT: 3186254  MISS: 778212  HIT %: 80.3703  MISS %: 19.6297  AVERAGE MISS PENALTY: 100
STLB RFO       ACCESS: 500026  HIT: 316602  MISS: 183424  HIT %: 63.3171  MISS %: 36.6829  AVERAGE MISS PENALTY: 100
STLB PREFETCH  ACCESS:     0  HIT:     0  MISS:     0  HIT %:     0  MISS %:     0  AVERAGE MISS PENALTY: 0
STLB WRITEBACK ACCESS:     0  HIT:     0  MISS:     0  HIT %:     0  MISS %:     0  AVERAGE MISS PENALTY: 0
STLB PREFETCH  REQUESTED:     0  ISSUED:     0  USEFUL:     0  USELESS:     0
 USEFUL LOAD PREFETCHES:          0 PREFETCH ISSUED TO LOWER LEVEL:          0  ACCURACY: -nan
 TIMELY PREFETCHES:          0 LATE PREFETCHES: 0 DROPPED PREFETCHES: 0
STLB AVERAGE MISS LATENCY: 100 cycles
L1D TOTAL     ACCESS: 118051382  HIT: 110521791  MISS: 7529591  HIT %: 93.6218  MISS %: 6.37823  AVERAGE MISS PENALTY: 8.94537e+06
L1D LOAD      ACCESS: 52902447  HIT: 49789722  MISS: 3112725  HIT %: 94.1161  MISS %: 5.8839  AVERAGE MISS PENALTY: 1.69486e+07
L1D RFO       ACCESS: 36608064  HIT: 36303937  MISS: 304127  HIT %: 99.1692  MISS %: 0.830765  AVERAGE MISS PENALTY: 4.79989e+07
L1D PREFETCH  ACCESS: 28540871  HIT: 24428132  MISS: 4112739  HIT %: 85.59  MISS %: 14.41  AVERAGE MISS PENALTY: 194.999
L1D WRITEBACK ACCESS:     0  HIT:     0  MISS:     0  HIT %:     0  MISS %:     0  AVERAGE MISS PENALTY: 0
L1D PREFETCH  REQUESTED: 29744028  ISSUED: 29562679  USEFUL: 624759  USELESS: 3487823
 USEFUL LOAD PREFETCHES:     624759 PREFETCH ISSUED TO LOWER LEVEL:    4996465  ACCURACY: 12.504
 TIMELY PREFETCHES:     624759 LATE PREFETCHES: 562098 DROPPED PREFETCHES: 181349
L1D AVERAGE MISS LATENCY: 1.9389e+06 cycles
L1I TOTAL     ACCESS: 42310669  HIT: 42186440  MISS: 124229  HIT %: 99.7064  MISS %: 0.293612  AVERAGE MISS PENALTY: 58.043
L1I LOAD      ACCESS: 42310669  HIT: 42186440  MISS: 124229  HIT %: 99.7064  MISS %: 0.293612  AVERAGE MISS PENALTY: 58.043
L1I RFO       ACCESS:     0  HIT:     0  MISS:     0  HIT %:     0  MISS %:     0  AVERAGE MISS PENALTY: 0
L1I PREFETCH  ACCESS:     0  HIT:     0  MISS:     0  HIT %:     0  MISS %:     0  AVERAGE MISS PENALTY: 0
L1I WRITEBACK ACCESS:     0  HIT:     0  MISS:     0  HIT %:     0  MISS %:     0  AVERAGE MISS PENALTY: 0
L1I PREFETCH  REQUESTED:     0  ISSUED:     0  USEFUL:     0  USELESS:     0
 USEFUL LOAD PREFETCHES:          0 PREFETCH ISSUED TO LOWER LEVEL:          0  ACCURACY: -nan
 TIMELY PREFETCHES:          0 LATE PREFETCHES: 0 DROPPED PREFETCHES: 0
L1I AVERAGE MISS LATENCY: 58.043 cycles
L2C TOTAL     ACCESS: 12631010  HIT: 5829116  MISS: 6801894  HIT %: 46.1492  MISS %: 53.8508  AVERAGE MISS PENALTY: 8.49824e+06
L2C LOAD      ACCESS: 3231408  HIT: 1215875  MISS: 2015533  HIT %: 37.6268  MISS %: 62.3732  AVERAGE MISS PENALTY: 2.7429e+07
L2C RFO       ACCESS: 283561  HIT: 88453  MISS: 195108  HIT %: 31.1936  MISS %: 68.8064  AVERAGE MISS PENALTY: 1.29094e+07
L2C PREFETCH  ACCESS: 7164343  HIT: 2591587  MISS: 4572756  HIT %: 36.1734  MISS %: 63.8266  AVERAGE MISS PENALTY: 274.272
L2C WRITEBACK ACCESS: 1951698  HIT: 1933201  MISS: 18497  HIT %: 99.0523  MISS %: 0.947739  AVERAGE MISS PENALTY: 0
L2C PREFETCH  REQUESTED: 5082349  ISSUED: 5011968  USEFUL: 344794  USELESS: 4226407
 USEFUL LOAD PREFETCHES:     344794 PREFETCH ISSUED TO LOWER LEVEL:    4891087  ACCURACY: 7.04944
 TIMELY PREFETCHES:     344794 LATE PREFETCHES: 256764 DROPPED PREFETCHES: 70381
L2C AVERAGE MISS LATENCY: 267.273 cycles
LLC0 TOTAL     ACCESS: 996959  HIT: 331630  MISS: 665329  HIT %: 33.2642  MISS %: 66.7358  AVERAGE MISS PENALTY: 275.031
LLC0 LOAD      ACCESS: 255953  HIT: 62937  MISS: 193016  HIT %: 24.5893  MISS %: 75.4107  AVERAGE MISS PENALTY: 286.658
LLC0 RFO       ACCESS: 26592  HIT:  7894  MISS: 18698  HIT %: 29.6856  MISS %: 70.3144  AVERAGE MISS PENALTY: 281.574
LLC0 PREFETCH  ACCESS: 526615  HIT: 105002  MISS: 421613  HIT %: 19.939  MISS %: 80.061  AVERAGE MISS PENALTY: 290.293
LLC0 WRITEBACK ACCESS: 187799  HIT: 155797  MISS: 32002  HIT %: 82.9594  MISS %: 17.0406  AVERAGE MISS PENALTY: 0
LLC0 PREFETCH  REQUESTED:     0  ISSUED:     0  USEFUL: 72250  USELESS: 3299952
 USEFUL LOAD PREFETCHES:      72250 PREFETCH ISSUED TO LOWER LEVEL:    3377506  ACCURACY: 2.13915
 TIMELY PREFETCHES:      72250 LATE PREFETCHES: 0 DROPPED PREFETCHES: 0
LLC0 AVERAGE MISS LATENCY: 275.031 cycles
Deadblocks : 1428980 Deadblock percentage : 740.343

LLC1 TOTAL     ACCESS: 1029198  HIT: 344484  MISS: 684714  HIT %: 33.4711  MISS %: 66.5289  AVERAGE MISS PENALTY: 277.489
LLC1 LOAD      ACCESS: 246186  HIT: 60198  MISS: 185988  HIT %: 24.4522  MISS %: 75.5478  AVERAGE MISS PENALTY: 289.022
LLC1 RFO       ACCESS: 24179  HIT:  6679  MISS: 17500  HIT %: 27.6231  MISS %: 72.3769  AVERAGE MISS PENALTY: 282.863
LLC1 PREFETCH  ACCESS: 569714  HIT: 120080  MISS: 449634  HIT %: 21.0772  MISS %: 78.9228  AVERAGE MISS PENALTY: 292.006
LLC1 WRITEBACK ACCESS: 189119  HIT: 157527  MISS: 31592  HIT %: 83.2952  MISS %: 16.7048  AVERAGE MISS PENALTY: 0
LLC1 PREFETCH  REQUESTED:     0  ISSUED:     0  USEFUL: 77104  USELESS: 3519897
 USEFUL LOAD PREFETCHES:      77104 PREFETCH ISSUED TO LOWER LEVEL:    3602666  ACCURACY: 2.14019
 TIMELY PREFETCHES:      77104 LATE PREFETCHES: 0 DROPPED PREFETCHES: 0
LLC1 AVERAGE MISS LATENCY: 277.489 cycles
LLC2 TOTAL     ACCESS: 1041780  HIT: 341255  MISS: 700525  HIT %: 32.7569  MISS %: 67.2431  AVERAGE MISS PENALTY: 282.858
LLC2 LOAD      ACCESS: 241273  HIT: 56925  MISS: 184348  HIT %: 23.5936  MISS %: 76.4064  AVERAGE MISS PENALTY: 288.943
LLC2 RFO       ACCESS: 23059  HIT:  6388  MISS: 16671  HIT %: 27.7028  MISS %: 72.2972  AVERAGE MISS PENALTY: 284.794
LLC2 PREFETCH  ACCESS: 588121  HIT: 120626  MISS: 467495  HIT %: 20.5104  MISS %: 79.4896  AVERAGE MISS PENALTY: 299.758
LLC2 WRITEBACK ACCESS: 189327  HIT: 157316  MISS: 32011  HIT %: 83.0922  MISS %: 16.9078  AVERAGE MISS PENALTY: 0
LLC2 PREFETCH  REQUESTED:     0  ISSUED:     0  USEFUL: 77688  USELESS: 3663124
 USEFUL LOAD PREFETCHES:      77688 PREFETCH ISSUED TO LOWER LEVEL:    3746934  ACCURACY: 2.07338
 TIMELY PREFETCHES:      77688 LATE PREFETCHES: 0 DROPPED PREFETCHES: 0
LLC2 AVERAGE MISS LATENCY: 282.858 cycles
LLC3 TOTAL     ACCESS: 1042799  HIT: 342493  MISS: 700306  HIT %: 32.8436  MISS %: 67.1564  AVERAGE MISS PENALTY: 284.965
LLC3 LOAD      ACCESS: 241130  HIT: 56727  MISS: 184403  HIT %: 23.5255  MISS %: 76.4745  AVERAGE MISS PENALTY: 291.226
LLC3 RFO       ACCESS: 23363  HIT:  6549  MISS: 16814  HIT %: 28.0315  MISS %: 71.9685  AVERAGE MISS PENALTY: 287.48
LLC3 PREFETCH  ACCESS: 588139  HIT: 120872  MISS: 467267  HIT %: 20.5516  MISS %: 79.4484  AVERAGE MISS PENALTY: 301.811
LLC3 WRITEBACK ACCESS: 190167  HIT: 158345  MISS: 31822  HIT %: 83.2663  MISS %: 16.7337  AVERAGE MISS PENALTY: 0
LLC3 PREFETCH  REQUESTED:     0  ISSUED:     0  USEFUL: 78086  USELESS: 3659846
 USEFUL LOAD PREFETCHES:      78086 PREFETCH ISSUED TO LOWER LEVEL:    3743779  ACCURACY: 2.08575
 TIMELY PREFETCHES:      78086 LATE PREFETCHES: 0 DROPPED PREFETCHES: 0
LLC3 AVERAGE MISS LATENCY: 284.965 cycles
LLC4 TOTAL     ACCESS: 1045445  HIT: 344792  MISS: 700653  HIT %: 32.9804  MISS %: 67.0196  AVERAGE MISS PENALTY: 279.075
LLC4 LOAD      ACCESS: 248994  HIT: 63660  MISS: 185334  HIT %: 25.5669  MISS %: 74.4331  AVERAGE MISS PENALTY: 290.828
LLC4 RFO       ACCESS: 23665  HIT:  6774  MISS: 16891  HIT %: 28.6246  MISS %: 71.3754  AVERAGE MISS PENALTY: 283.996
LLC4 PREFETCH  ACCESS: 585479  HIT: 117784  MISS: 467695  HIT %: 20.1175  MISS %: 79.8825  AVERAGE MISS PENALTY: 292.579
LLC4 WRITEBACK ACCESS: 187307  HIT: 156574  MISS: 30733  HIT %: 83.5922  MISS %: 16.4078  AVERAGE MISS PENALTY: 0
LLC4 PREFETCH  REQUESTED:     0  ISSUED:     0  USEFUL: 80124  USELESS: 3661014
 USEFUL LOAD PREFETCHES:      80124 PREFETCH ISSUED TO LOWER LEVEL:    3746857  ACCURACY: 2.13843
 TIMELY PREFETCHES:      80124 LATE PREFETCHES: 0 DROPPED PREFETCHES: 0
LLC4 AVERAGE MISS LATENCY: 279.075 cycles
LLC5 TOTAL     ACCESS: 1046437  HIT: 346586  MISS: 699851  HIT %: 33.1206  MISS %: 66.8794  AVERAGE MISS PENALTY: 280.241
LLC5 LOAD      ACCESS: 240930  HIT: 57205  MISS: 183725  HIT %: 23.7434  MISS %: 76.2566  AVERAGE MISS PENALTY: 291.877
LLC5 RFO       ACCESS: 23744  HIT:  6768  MISS: 16976  HIT %: 28.504  MISS %: 71.496  AVERAGE MISS PENALTY: 285.437
LLC5 PREFETCH  ACCESS: 595030  HIT: 126544  MISS: 468486  HIT %: 21.2668  MISS %: 78.7332  AVERAGE MISS PENALTY: 293.832
LLC5 WRITEBACK ACCESS: 186733  HIT: 156069  MISS: 30664  HIT %: 83.5787  MISS %: 16.4213  AVERAGE MISS PENALTY: 0
LLC5 PREFETCH  REQUESTED:     0  ISSUED:     0  USEFUL: 78412  USELESS: 3672200
 USEFUL LOAD PREFETCHES:      78412 PREFETCH ISSUED TO LOWER LEVEL:    3756919  ACCURACY: 2.08714
 TIMELY PREFETCHES:      78412 LATE PREFETCHES: 0 DROPPED PREFETCHES: 0
LLC5 AVERAGE MISS LATENCY: 280.241 cycles
LLC6 TOTAL     ACCESS: 1048231  HIT: 346434  MISS: 701797  HIT %: 33.0494  MISS %: 66.9506  AVERAGE MISS PENALTY: 285.904
LLC6 LOAD      ACCESS: 248084  HIT: 60769  MISS: 187315  HIT %: 24.4953  MISS %: 75.5047  AVERAGE MISS PENALTY: 293.227
LLC6 RFO       ACCESS: 23474  HIT:  6530  MISS: 16944  HIT %: 27.818  MISS %: 72.182  AVERAGE MISS PENALTY: 288.418
LLC6 PREFETCH  ACCESS: 586928  HIT: 121736  MISS: 465192  HIT %: 20.7412  MISS %: 79.2588  AVERAGE MISS PENALTY: 302.743
LLC6 WRITEBACK ACCESS: 189745  HIT: 157399  MISS: 32346  HIT %: 82.9529  MISS %: 17.0471  AVERAGE MISS PENALTY: 0
LLC6 PREFETCH  REQUESTED:     0  ISSUED:     0  USEFUL: 79955  USELESS: 3640940
 USEFUL LOAD PREFETCHES:      79955 PREFETCH ISSUED TO LOWER LEVEL:    3727150  ACCURACY: 2.1452
 TIMELY PREFETCHES:      79955 LATE PREFETCHES: 0 DROPPED PREFETCHES: 0
LLC6 AVERAGE MISS LATENCY: 285.904 cycles
LLC7 TOTAL     ACCESS: 1040494  HIT: 337216  MISS: 703278  HIT %: 32.4092  MISS %: 67.5908  AVERAGE MISS PENALTY: 286.013
LLC7 LOAD      ACCESS: 239670  HIT: 54174  MISS: 185496  HIT %: 22.6036  MISS %: 77.3964  AVERAGE MISS PENALTY: 293.772
LLC7 RFO       ACCESS: 23516  HIT:  6620  MISS: 16896  HIT %: 28.151  MISS %: 71.849  AVERAGE MISS PENALTY: 289.141
LLC7 PREFETCH  ACCESS: 589538  HIT: 123109  MISS: 466429  HIT %: 20.8823  MISS %: 79.1177  AVERAGE MISS PENALTY: 303.943
LLC7 WRITEBACK ACCESS: 187770  HIT: 153313  MISS: 34457  HIT %: 81.6494  MISS %: 18.3506  AVERAGE MISS PENALTY: 0
LLC7 PREFETCH  REQUESTED:     0  ISSUED:     0  USEFUL: 78705  USELESS: 3659010
 USEFUL LOAD PREFETCHES:      78705 PREFETCH ISSUED TO LOWER LEVEL:    3744164  ACCURACY: 2.10207
 TIMELY PREFETCHES:      78705 LATE PREFETCHES: 0 DROPPED PREFETCHES: 0
LLC7 AVERAGE MISS LATENCY: 286.013 cycles
ROI Average ROB Stall Cycles:	13.681
ROI Total ROB Stalls Cycles:	984510709
ROI TOTAL ROB counter      :	71961787
ROI Average Load ROB Stall Cycles:	35.5573
ROI Total Load ROB Stalls Cycle  :	349146427
ROI Total Load ROB stalls Counter:	9819266
Major fault: 0 Minor fault: 54306








Interconnect Stats 
LINK 0 BW : 0LINK 1 BW : 0LINK 2 BW : 0LINK 3 BW : 0LINK 4 BW : 0LINK 5 BW : 0LINK 6 BW : 0LINK 7 BW : 0
DRAM Statistics
 CHANNEL 0
 RQ ROW_BUFFER_HIT: 2926524  ROW_BUFFER_MISS: 18237612
 DBUS_CONGESTED: 17195770
 WQ ROW_BUFFER_HIT: 303687  ROW_BUFFER_MISS: 4578180  FULL:     0

 CHANNEL 1
 RQ ROW_BUFFER_HIT: 2913703  ROW_BUFFER_MISS: 18407691
 DBUS_CONGESTED: 17195770
 WQ ROW_BUFFER_HIT: 291450  ROW_BUFFER_MISS: 4586991  FULL:     0

 AVG_CONGESTED_CYCLE: 6
DRAM PAGES: 2097152
Allocated PAGES: 434455
L2C destructor called
L1D destructor called
L1I destructor called
STLB destructor called
DTLB destructor called
ITLB destructor called
L2C destructor called
L1D destructor called
L1I destructor called
STLB destructor called
DTLB destructor called
ITLB destructor called
L2C destructor called
L1D destructor called
L1I destructor called
STLB destructor called
DTLB destructor called
ITLB destructor called
L2C destructor called
L1D destructor called
L1I destructor called
STLB destructor called
DTLB destructor called
ITLB destructor called
L2C destructor called
L1D destructor called
L1I destructor called
STLB destructor called
DTLB destructor called
ITLB destructor called
L2C destructor called
L1D destructor called
L1I destructor called
STLB destructor called
DTLB destructor called
ITLB destructor called
L2C destructor called
L1D destructor called
L1I destructor called
STLB destructor called
DTLB destructor called
ITLB destructor called
L2C destructor called
L1D destructor called
L1I destructor called
STLB destructor called
DTLB destructor called
ITLB destructor called
