
*** ChampSim Multicore Out-of-Order Simulator ***

Warmup Instructions: 200000000
Simulation Instructions: 200000000
Number of CPUs: 8
threads:1

L1I Configuration:
L1I_SET:64
L1I_WAY:8
L1I_RQ_SIZE:64
L1I_WQ_SIZE:64
L1I_PQ_SIZE:8
L1I_MSHR_SIZE:8

L1D Configuration:
L1D_SET:64
L1D_WAY:12
L1D_RQ_SIZE:64
L1D_WQ_SIZE:64
L1D_PQ_SIZE:8
L1D_MSHR_SIZE:16

L2C Configuration:
L2C_SET:1024
L2C_WAY:8
L2C_RQ_SIZE:32
L2C_WQ_SIZE:32
L2C_PQ_SIZE:16
L2C_MSHR_SIZE:32

LLC Configuration:
LLC_SET:2048
LLC_WAY:16
LLC SLICES:8
LLC_RQ_SIZE:64
LLC_WQ_SIZE:64
LLC_PQ_SIZE:32
LLC_MSHR_SIZE:64

Interconnect OFF
Attacker deprioritize is: OFF
Off-chip DRAM Size: 8192 MB Channels: 2 Width: 64-bit Data Rate: 3200 MT/s
PAGE SIZE in KB: 4.000000 
PAGE SIZE in MB: 0.003906 
PAGE offset in bits: 12 
CEASER-S_LLC:0
MIRAGE : 0
CEASER_LATENCY:3
REMAP : OFF
Partitions : 1
Multi-Step : OFF
BFS : OFF

CPU 0 runs /home/anubhav/spec_2017/621.wrf_s-8065B.champsimtrace.xz
CPU 1 runs /home/anubhav/spec_2017/621.wrf_s-8065B.champsimtrace.xz
CPU 2 runs /home/anubhav/spec_2017/621.wrf_s-8065B.champsimtrace.xz
CPU 3 runs /home/anubhav/spec_2017/621.wrf_s-8065B.champsimtrace.xz
CPU 4 runs /home/anubhav/spec_2017/621.wrf_s-8065B.champsimtrace.xz
CPU 5 runs /home/anubhav/spec_2017/621.wrf_s-8065B.champsimtrace.xz
CPU 6 runs /home/anubhav/spec_2017/621.wrf_s-8065B.champsimtrace.xz
CPU 7 runs /home/anubhav/spec_2017/621.wrf_s-8065B.champsimtrace.xz
CPU 0 Bimodal branch predictor
Initialize Hawkeye state
Initialize Hawkeye state
Initialize Hawkeye state
Initialize Hawkeye state
Initialize Hawkeye state
Initialize Hawkeye state
Initialize Hawkeye state
Initialize Hawkeye state
CPU 1 Bimodal branch predictor
Initialize Hawkeye state
Initialize Hawkeye state
Initialize Hawkeye state
Initialize Hawkeye state
Initialize Hawkeye state
Initialize Hawkeye state
Initialize Hawkeye state
Initialize Hawkeye state
CPU 2 Bimodal branch predictor
Initialize Hawkeye state
Initialize Hawkeye state
Initialize Hawkeye state
Initialize Hawkeye state
Initialize Hawkeye state
Initialize Hawkeye state
Initialize Hawkeye state
Initialize Hawkeye state
CPU 3 Bimodal branch predictor
Initialize Hawkeye state
Initialize Hawkeye state
Initialize Hawkeye state
Initialize Hawkeye state
Initialize Hawkeye state
Initialize Hawkeye state
Initialize Hawkeye state
Initialize Hawkeye state
CPU 4 Bimodal branch predictor
Initialize Hawkeye state
Initialize Hawkeye state
Initialize Hawkeye state
Initialize Hawkeye state
Initialize Hawkeye state
Initialize Hawkeye state
Initialize Hawkeye state
Initialize Hawkeye state
CPU 5 Bimodal branch predictor
Initialize Hawkeye state
Initialize Hawkeye state
Initialize Hawkeye state
Initialize Hawkeye state
Initialize Hawkeye state
Initialize Hawkeye state
Initialize Hawkeye state
Initialize Hawkeye state
CPU 6 Bimodal branch predictor
Initialize Hawkeye state
Initialize Hawkeye state
Initialize Hawkeye state
Initialize Hawkeye state
Initialize Hawkeye state
Initialize Hawkeye state
Initialize Hawkeye state
Initialize Hawkeye state
CPU 7 Bimodal branch predictor
Initialize Hawkeye state
Initialize Hawkeye state
Initialize Hawkeye state
Initialize Hawkeye state
Initialize Hawkeye state
Initialize Hawkeye state
Initialize Hawkeye state
Initialize Hawkeye state
Heartbeat CPU 1 instructions: 10000001 cycles: 4657153 heartbeat IPC: 2.14723 cumulative IPC: 2.14723 (Simulation time: 5 hr 45 min 38 sec) 
 Total Blocks : 262144 Invalid Blocks : 3
Heartbeat CPU 0 instructions: 10000001 cycles: 4657193 heartbeat IPC: 2.14722 cumulative IPC: 2.14722 (Simulation time: 5 hr 45 min 46 sec) 
 Total Blocks : 262144 Invalid Blocks : 3
Heartbeat CPU 2 instructions: 10000001 cycles: 4657229 heartbeat IPC: 2.1472 cumulative IPC: 2.1472 (Simulation time: 5 hr 45 min 46 sec) 
 Total Blocks : 262144 Invalid Blocks : 3
Heartbeat CPU 4 instructions: 10000001 cycles: 4657266 heartbeat IPC: 2.14718 cumulative IPC: 2.14718 (Simulation time: 5 hr 45 min 46 sec) 
 Total Blocks : 262144 Invalid Blocks : 3
Heartbeat CPU 6 instructions: 10000001 cycles: 4657267 heartbeat IPC: 2.14718 cumulative IPC: 2.14718 (Simulation time: 5 hr 45 min 47 sec) 
 Total Blocks : 262144 Invalid Blocks : 3
Heartbeat CPU 3 instructions: 10000001 cycles: 4657283 heartbeat IPC: 2.14717 cumulative IPC: 2.14717 (Simulation time: 5 hr 45 min 47 sec) 
 Total Blocks : 262144 Invalid Blocks : 3
Heartbeat CPU 5 instructions: 10000001 cycles: 4657412 heartbeat IPC: 2.14712 cumulative IPC: 2.14712 (Simulation time: 5 hr 45 min 47 sec) 
 Total Blocks : 262144 Invalid Blocks : 3
Heartbeat CPU 7 instructions: 10000001 cycles: 4657429 heartbeat IPC: 2.14711 cumulative IPC: 2.14711 (Simulation time: 5 hr 45 min 48 sec) 
 Total Blocks : 262144 Invalid Blocks : 3
Heartbeat CPU 1 instructions: 20000000 cycles: 9126509 heartbeat IPC: 2.23746 cumulative IPC: 2.19142 (Simulation time: 8 hr 6 min 7 sec) 
 Total Blocks : 262144 Invalid Blocks : 0
Heartbeat CPU 0 instructions: 20000000 cycles: 9126546 heartbeat IPC: 2.23746 cumulative IPC: 2.19141 (Simulation time: 8 hr 6 min 14 sec) 
 Total Blocks : 262144 Invalid Blocks : 0
Heartbeat CPU 2 instructions: 20000000 cycles: 9126558 heartbeat IPC: 2.23747 cumulative IPC: 2.19141 (Simulation time: 8 hr 6 min 14 sec) 
 Total Blocks : 262144 Invalid Blocks : 0
Heartbeat CPU 4 instructions: 20000000 cycles: 9126623 heartbeat IPC: 2.23746 cumulative IPC: 2.19139 (Simulation time: 8 hr 6 min 15 sec) 
 Total Blocks : 262144 Invalid Blocks : 0
Heartbeat CPU 6 instructions: 20000000 cycles: 9126624 heartbeat IPC: 2.23746 cumulative IPC: 2.19139 (Simulation time: 8 hr 6 min 15 sec) 
 Total Blocks : 262144 Invalid Blocks : 0
Heartbeat CPU 3 instructions: 20000000 cycles: 9126651 heartbeat IPC: 2.23745 cumulative IPC: 2.19138 (Simulation time: 8 hr 6 min 15 sec) 
 Total Blocks : 262144 Invalid Blocks : 0
Heartbeat CPU 7 instructions: 20000000 cycles: 9126777 heartbeat IPC: 2.23746 cumulative IPC: 2.19135 (Simulation time: 8 hr 6 min 15 sec) 
 Total Blocks : 262144 Invalid Blocks : 0
Heartbeat CPU 5 instructions: 20000000 cycles: 9126790 heartbeat IPC: 2.23745 cumulative IPC: 2.19135 (Simulation time: 8 hr 6 min 15 sec) 
 Total Blocks : 262144 Invalid Blocks : 0
Heartbeat CPU 0 instructions: 30000000 cycles: 13381581 heartbeat IPC: 2.35016 cumulative IPC: 2.24189 (Simulation time: 10 hr 57 min 3 sec) 
 Total Blocks : 262144 Invalid Blocks : 0
Heartbeat CPU 4 instructions: 30000000 cycles: 13381653 heartbeat IPC: 2.35016 cumulative IPC: 2.24188 (Simulation time: 10 hr 57 min 8 sec) 
 Total Blocks : 262144 Invalid Blocks : 0
Heartbeat CPU 1 instructions: 30000000 cycles: 13381704 heartbeat IPC: 2.35007 cumulative IPC: 2.24187 (Simulation time: 10 hr 57 min 8 sec) 
 Total Blocks : 262144 Invalid Blocks : 0
Heartbeat CPU 2 instructions: 30000000 cycles: 13381711 heartbeat IPC: 2.35009 cumulative IPC: 2.24187 (Simulation time: 10 hr 57 min 8 sec) 
 Total Blocks : 262144 Invalid Blocks : 0
Heartbeat CPU 5 instructions: 30000000 cycles: 13381755 heartbeat IPC: 2.3502 cumulative IPC: 2.24186 (Simulation time: 10 hr 57 min 8 sec) 
 Total Blocks : 262144 Invalid Blocks : 0
Heartbeat CPU 3 instructions: 30000000 cycles: 13381858 heartbeat IPC: 2.35006 cumulative IPC: 2.24184 (Simulation time: 10 hr 57 min 9 sec) 
 Total Blocks : 262144 Invalid Blocks : 0
Heartbeat CPU 6 instructions: 30000000 cycles: 13381897 heartbeat IPC: 2.35003 cumulative IPC: 2.24183 (Simulation time: 10 hr 57 min 9 sec) 
 Total Blocks : 262144 Invalid Blocks : 0
Heartbeat CPU 7 instructions: 30000000 cycles: 13381912 heartbeat IPC: 2.3501 cumulative IPC: 2.24183 (Simulation time: 10 hr 57 min 9 sec) 
 Total Blocks : 262144 Invalid Blocks : 0
Heartbeat CPU 0 instructions: 40000003 cycles: 17954758 heartbeat IPC: 2.18666 cumulative IPC: 2.22782 (Simulation time: 13 hr 6 min 37 sec) 
 Total Blocks : 262144 Invalid Blocks : 0
Heartbeat CPU 4 instructions: 40000003 cycles: 17954820 heartbeat IPC: 2.18667 cumulative IPC: 2.22781 (Simulation time: 13 hr 6 min 45 sec) 
 Total Blocks : 262144 Invalid Blocks : 0
Heartbeat CPU 2 instructions: 40000003 cycles: 17954906 heartbeat IPC: 2.18666 cumulative IPC: 2.2278 (Simulation time: 13 hr 6 min 46 sec) 
 Total Blocks : 262144 Invalid Blocks : 0
Heartbeat CPU 5 instructions: 40000003 cycles: 17954908 heartbeat IPC: 2.18668 cumulative IPC: 2.2278 (Simulation time: 13 hr 6 min 46 sec) 
 Total Blocks : 262144 Invalid Blocks : 0
Heartbeat CPU 1 instructions: 40000003 cycles: 17954930 heartbeat IPC: 2.18664 cumulative IPC: 2.2278 (Simulation time: 13 hr 6 min 46 sec) 
 Total Blocks : 262144 Invalid Blocks : 0
Heartbeat CPU 3 instructions: 40000003 cycles: 17955062 heartbeat IPC: 2.18665 cumulative IPC: 2.22778 (Simulation time: 13 hr 6 min 46 sec) 
 Total Blocks : 262144 Invalid Blocks : 0
Heartbeat CPU 6 instructions: 40000003 cycles: 17955155 heartbeat IPC: 2.18663 cumulative IPC: 2.22777 (Simulation time: 13 hr 6 min 47 sec) 
 Total Blocks : 262144 Invalid Blocks : 0
Heartbeat CPU 7 instructions: 40000003 cycles: 17955174 heartbeat IPC: 2.18662 cumulative IPC: 2.22777 (Simulation time: 13 hr 6 min 47 sec) 
 Total Blocks : 262144 Invalid Blocks : 0
Heartbeat CPU 0 instructions: 50000002 cycles: 22293853 heartbeat IPC: 2.30463 cumulative IPC: 2.24277 (Simulation time: 14 hr 59 min 52 sec) 
 Total Blocks : 262144 Invalid Blocks : 0
Heartbeat CPU 4 instructions: 50000002 cycles: 22293896 heartbeat IPC: 2.30464 cumulative IPC: 2.24277 (Simulation time: 14 hr 59 min 55 sec) 
 Total Blocks : 262144 Invalid Blocks : 0
Heartbeat CPU 2 instructions: 50000002 cycles: 22293984 heartbeat IPC: 2.30464 cumulative IPC: 2.24276 (Simulation time: 14 hr 59 min 55 sec) 
 Total Blocks : 262144 Invalid Blocks : 0
Heartbeat CPU 1 instructions: 50000002 cycles: 22294014 heartbeat IPC: 2.30463 cumulative IPC: 2.24275 (Simulation time: 14 hr 59 min 55 sec) 
 Total Blocks : 262144 Invalid Blocks : 0
Heartbeat CPU 5 instructions: 50000002 cycles: 22294039 heartbeat IPC: 2.30461 cumulative IPC: 2.24275 (Simulation time: 14 hr 59 min 55 sec) 
 Total Blocks : 262144 Invalid Blocks : 0
Heartbeat CPU 3 instructions: 50000002 cycles: 22294106 heartbeat IPC: 2.30465 cumulative IPC: 2.24275 (Simulation time: 14 hr 59 min 55 sec) 
 Total Blocks : 262144 Invalid Blocks : 0
Heartbeat CPU 6 instructions: 50000002 cycles: 22294275 heartbeat IPC: 2.30461 cumulative IPC: 2.24273 (Simulation time: 14 hr 59 min 55 sec) 
 Total Blocks : 262144 Invalid Blocks : 0
Heartbeat CPU 7 instructions: 50000002 cycles: 22294282 heartbeat IPC: 2.30462 cumulative IPC: 2.24273 (Simulation time: 14 hr 59 min 55 sec) 
 Total Blocks : 262144 Invalid Blocks : 0
Heartbeat CPU 0 instructions: 60000002 cycles: 26843353 heartbeat IPC: 2.19804 cumulative IPC: 2.23519 (Simulation time: 16 hr 47 min 36 sec) 
 Total Blocks : 262144 Invalid Blocks : 0
Heartbeat CPU 4 instructions: 60000002 cycles: 26843411 heartbeat IPC: 2.19804 cumulative IPC: 2.23519 (Simulation time: 16 hr 47 min 40 sec) 
 Total Blocks : 262144 Invalid Blocks : 0
Heartbeat CPU 1 instructions: 60000002 cycles: 26843505 heartbeat IPC: 2.19805 cumulative IPC: 2.23518 (Simulation time: 16 hr 47 min 40 sec) 
 Total Blocks : 262144 Invalid Blocks : 0
Heartbeat CPU 5 instructions: 60000002 cycles: 26843529 heartbeat IPC: 2.19805 cumulative IPC: 2.23518 (Simulation time: 16 hr 47 min 40 sec) 
 Total Blocks : 262144 Invalid Blocks : 0
Heartbeat CPU 2 instructions: 60000002 cycles: 26843544 heartbeat IPC: 2.19801 cumulative IPC: 2.23517 (Simulation time: 16 hr 47 min 41 sec) 
 Total Blocks : 262144 Invalid Blocks : 0
Heartbeat CPU 3 instructions: 60000002 cycles: 26843640 heartbeat IPC: 2.19803 cumulative IPC: 2.23517 (Simulation time: 16 hr 47 min 41 sec) 
 Total Blocks : 262144 Invalid Blocks : 0
Heartbeat CPU 7 instructions: 60000002 cycles: 26843782 heartbeat IPC: 2.19804 cumulative IPC: 2.23515 (Simulation time: 16 hr 47 min 41 sec) 
 Total Blocks : 262144 Invalid Blocks : 0
Heartbeat CPU 6 instructions: 60000002 cycles: 26843844 heartbeat IPC: 2.19801 cumulative IPC: 2.23515 (Simulation time: 16 hr 47 min 41 sec) 
 Total Blocks : 262144 Invalid Blocks : 0
Heartbeat CPU 0 instructions: 70000002 cycles: 31138113 heartbeat IPC: 2.32842 cumulative IPC: 2.24805 (Simulation time: 18 hr 22 min 10 sec) 
 Total Blocks : 262144 Invalid Blocks : 0
Heartbeat CPU 4 instructions: 70000002 cycles: 31138161 heartbeat IPC: 2.32842 cumulative IPC: 2.24805 (Simulation time: 18 hr 22 min 13 sec) 
 Total Blocks : 262144 Invalid Blocks : 0
Heartbeat CPU 5 instructions: 70000002 cycles: 31138249 heartbeat IPC: 2.32844 cumulative IPC: 2.24804 (Simulation time: 18 hr 22 min 13 sec) 
 Total Blocks : 262144 Invalid Blocks : 0
Heartbeat CPU 2 instructions: 70000002 cycles: 31138277 heartbeat IPC: 2.32843 cumulative IPC: 2.24804 (Simulation time: 18 hr 22 min 14 sec) 
 Total Blocks : 262144 Invalid Blocks : 0
Heartbeat CPU 1 instructions: 70000002 cycles: 31138283 heartbeat IPC: 2.32841 cumulative IPC: 2.24804 (Simulation time: 18 hr 22 min 14 sec) 
 Total Blocks : 262144 Invalid Blocks : 0
Heartbeat CPU 3 instructions: 70000002 cycles: 31138408 heartbeat IPC: 2.32841 cumulative IPC: 2.24803 (Simulation time: 18 hr 22 min 14 sec) 
 Total Blocks : 262144 Invalid Blocks : 0
Heartbeat CPU 7 instructions: 70000002 cycles: 31138544 heartbeat IPC: 2.32842 cumulative IPC: 2.24802 (Simulation time: 18 hr 22 min 14 sec) 
 Total Blocks : 262144 Invalid Blocks : 0
Heartbeat CPU 6 instructions: 70000002 cycles: 31138550 heartbeat IPC: 2.32845 cumulative IPC: 2.24802 (Simulation time: 18 hr 22 min 14 sec) 
 Total Blocks : 262144 Invalid Blocks : 0
Heartbeat CPU 0 instructions: 80000000 cycles: 35729245 heartbeat IPC: 2.17811 cumulative IPC: 2.23906 (Simulation time: 20 hr 6 min 42 sec) 
 Total Blocks : 262144 Invalid Blocks : 0
Heartbeat CPU 4 instructions: 80000000 cycles: 35729352 heartbeat IPC: 2.17808 cumulative IPC: 2.23906 (Simulation time: 20 hr 6 min 46 sec) 
 Total Blocks : 262144 Invalid Blocks : 0
Heartbeat CPU 5 instructions: 80000000 cycles: 35729396 heartbeat IPC: 2.1781 cumulative IPC: 2.23905 (Simulation time: 20 hr 6 min 46 sec) 
 Total Blocks : 262144 Invalid Blocks : 0
Heartbeat CPU 1 instructions: 80000000 cycles: 35729415 heartbeat IPC: 2.17811 cumulative IPC: 2.23905 (Simulation time: 20 hr 6 min 46 sec) 
 Total Blocks : 262144 Invalid Blocks : 0
Heartbeat CPU 2 instructions: 80000000 cycles: 35729440 heartbeat IPC: 2.1781 cumulative IPC: 2.23905 (Simulation time: 20 hr 6 min 46 sec) 
 Total Blocks : 262144 Invalid Blocks : 0
Heartbeat CPU 3 instructions: 80000000 cycles: 35729628 heartbeat IPC: 2.17807 cumulative IPC: 2.23904 (Simulation time: 20 hr 6 min 47 sec) 
 Total Blocks : 262144 Invalid Blocks : 0
Heartbeat CPU 7 instructions: 80000000 cycles: 35729690 heartbeat IPC: 2.1781 cumulative IPC: 2.23903 (Simulation time: 20 hr 6 min 47 sec) 
 Total Blocks : 262144 Invalid Blocks : 0
Heartbeat CPU 6 instructions: 80000000 cycles: 35729699 heartbeat IPC: 2.1781 cumulative IPC: 2.23903 (Simulation time: 20 hr 6 min 47 sec) 
 Total Blocks : 262144 Invalid Blocks : 0
Heartbeat CPU 0 instructions: 90000003 cycles: 40047321 heartbeat IPC: 2.31585 cumulative IPC: 2.24734 (Simulation time: 21 hr 36 min 7 sec) 
 Total Blocks : 262144 Invalid Blocks : 0
Heartbeat CPU 4 instructions: 90000003 cycles: 40047460 heartbeat IPC: 2.31583 cumulative IPC: 2.24733 (Simulation time: 21 hr 36 min 10 sec) 
 Total Blocks : 262144 Invalid Blocks : 0
Heartbeat CPU 5 instructions: 90000003 cycles: 40047506 heartbeat IPC: 2.31583 cumulative IPC: 2.24733 (Simulation time: 21 hr 36 min 10 sec) 
 Total Blocks : 262144 Invalid Blocks : 0
Heartbeat CPU 1 instructions: 90000003 cycles: 40047525 heartbeat IPC: 2.31583 cumulative IPC: 2.24733 (Simulation time: 21 hr 36 min 10 sec) 
 Total Blocks : 262144 Invalid Blocks : 0
Heartbeat CPU 2 instructions: 90000003 cycles: 40047525 heartbeat IPC: 2.31584 cumulative IPC: 2.24733 (Simulation time: 21 hr 36 min 10 sec) 
 Total Blocks : 262144 Invalid Blocks : 0
Heartbeat CPU 3 instructions: 90000003 cycles: 40047669 heartbeat IPC: 2.31587 cumulative IPC: 2.24732 (Simulation time: 21 hr 36 min 10 sec) 
 Total Blocks : 262144 Invalid Blocks : 0
Heartbeat CPU 7 instructions: 90000003 cycles: 40047787 heartbeat IPC: 2.31584 cumulative IPC: 2.24732 (Simulation time: 21 hr 36 min 10 sec) 
 Total Blocks : 262144 Invalid Blocks : 0
Heartbeat CPU 6 instructions: 90000003 cycles: 40047821 heartbeat IPC: 2.31582 cumulative IPC: 2.24731 (Simulation time: 21 hr 36 min 10 sec) 
 Total Blocks : 262144 Invalid Blocks : 0
Heartbeat CPU 0 instructions: 100000001 cycles: 44615323 heartbeat IPC: 2.18914 cumulative IPC: 2.24138 (Simulation time: 23 hr 11 min 34 sec) 
 Total Blocks : 262144 Invalid Blocks : 0
Heartbeat CPU 4 instructions: 100000001 cycles: 44615423 heartbeat IPC: 2.18916 cumulative IPC: 2.24138 (Simulation time: 23 hr 11 min 37 sec) 
 Total Blocks : 262144 Invalid Blocks : 0
Heartbeat CPU 5 instructions: 100000001 cycles: 44615494 heartbeat IPC: 2.18915 cumulative IPC: 2.24137 (Simulation time: 23 hr 11 min 37 sec) 
 Total Blocks : 262144 Invalid Blocks : 0
Heartbeat CPU 1 instructions: 100000001 cycles: 44615524 heartbeat IPC: 2.18914 cumulative IPC: 2.24137 (Simulation time: 23 hr 11 min 37 sec) 
 Total Blocks : 262144 Invalid Blocks : 0
Heartbeat CPU 2 instructions: 100000001 cycles: 44615535 heartbeat IPC: 2.18914 cumulative IPC: 2.24137 (Simulation time: 23 hr 11 min 37 sec) 
 Total Blocks : 262144 Invalid Blocks : 0
Heartbeat CPU 3 instructions: 100000001 cycles: 44615685 heartbeat IPC: 2.18913 cumulative IPC: 2.24136 (Simulation time: 23 hr 11 min 37 sec) 
 Total Blocks : 262144 Invalid Blocks : 0
Heartbeat CPU 7 instructions: 100000001 cycles: 44615794 heartbeat IPC: 2.18914 cumulative IPC: 2.24136 (Simulation time: 23 hr 11 min 37 sec) 
 Total Blocks : 262144 Invalid Blocks : 0
Heartbeat CPU 6 instructions: 100000001 cycles: 44615836 heartbeat IPC: 2.18913 cumulative IPC: 2.24136 (Simulation time: 23 hr 11 min 37 sec) 
 Total Blocks : 262144 Invalid Blocks : 0
Heartbeat CPU 0 instructions: 110000000 cycles: 48956720 heartbeat IPC: 2.30341 cumulative IPC: 2.24688 (Simulation time: 24 hr 29 min 39 sec) 
 Total Blocks : 262144 Invalid Blocks : 0
Heartbeat CPU 4 instructions: 110000000 cycles: 48956828 heartbeat IPC: 2.3034 cumulative IPC: 2.24688 (Simulation time: 24 hr 29 min 41 sec) 
 Total Blocks : 262144 Invalid Blocks : 0
Heartbeat CPU 5 instructions: 110000000 cycles: 48956930 heartbeat IPC: 2.30339 cumulative IPC: 2.24687 (Simulation time: 24 hr 29 min 41 sec) 
 Total Blocks : 262144 Invalid Blocks : 0
Heartbeat CPU 1 instructions: 110000000 cycles: 48956933 heartbeat IPC: 2.3034 cumulative IPC: 2.24687 (Simulation time: 24 hr 29 min 41 sec) 
 Total Blocks : 262144 Invalid Blocks : 0
Heartbeat CPU 2 instructions: 110000000 cycles: 48956954 heartbeat IPC: 2.30339 cumulative IPC: 2.24687 (Simulation time: 24 hr 29 min 41 sec) 
 Total Blocks : 262144 Invalid Blocks : 0
Heartbeat CPU 3 instructions: 110000000 cycles: 48957074 heartbeat IPC: 2.30341 cumulative IPC: 2.24687 (Simulation time: 24 hr 29 min 41 sec) 
 Total Blocks : 262144 Invalid Blocks : 0
Heartbeat CPU 7 instructions: 110000000 cycles: 48957205 heartbeat IPC: 2.3034 cumulative IPC: 2.24686 (Simulation time: 24 hr 29 min 41 sec) 
 Total Blocks : 262144 Invalid Blocks : 0
Heartbeat CPU 6 instructions: 110000000 cycles: 48957241 heartbeat IPC: 2.3034 cumulative IPC: 2.24686 (Simulation time: 24 hr 29 min 41 sec) 
 Total Blocks : 262144 Invalid Blocks : 0
Heartbeat CPU 0 instructions: 120000001 cycles: 53642092 heartbeat IPC: 2.1343 cumulative IPC: 2.23705 (Simulation time: 25 hr 40 min 39 sec) 
 Total Blocks : 262144 Invalid Blocks : 0
Heartbeat CPU 4 instructions: 120000001 cycles: 53642240 heartbeat IPC: 2.13428 cumulative IPC: 2.23704 (Simulation time: 25 hr 40 min 42 sec) 
 Total Blocks : 262144 Invalid Blocks : 0
Heartbeat CPU 2 instructions: 120000001 cycles: 53642305 heartbeat IPC: 2.13431 cumulative IPC: 2.23704 (Simulation time: 25 hr 40 min 42 sec) 
 Total Blocks : 262144 Invalid Blocks : 0
Heartbeat CPU 5 instructions: 120000001 cycles: 53642317 heartbeat IPC: 2.1343 cumulative IPC: 2.23704 (Simulation time: 25 hr 40 min 42 sec) 
 Total Blocks : 262144 Invalid Blocks : 0
Heartbeat CPU 1 instructions: 120000001 cycles: 53642318 heartbeat IPC: 2.1343 cumulative IPC: 2.23704 (Simulation time: 25 hr 40 min 42 sec) 
 Total Blocks : 262144 Invalid Blocks : 0
Heartbeat CPU 3 instructions: 120000001 cycles: 53642479 heartbeat IPC: 2.13429 cumulative IPC: 2.23703 (Simulation time: 25 hr 40 min 42 sec) 
 Total Blocks : 262144 Invalid Blocks : 0
Heartbeat CPU 7 instructions: 120000001 cycles: 53642526 heartbeat IPC: 2.13433 cumulative IPC: 2.23703 (Simulation time: 25 hr 40 min 42 sec) 
 Total Blocks : 262144 Invalid Blocks : 0
Heartbeat CPU 6 instructions: 120000001 cycles: 53642656 heartbeat IPC: 2.13428 cumulative IPC: 2.23703 (Simulation time: 25 hr 40 min 42 sec) 
 Total Blocks : 262144 Invalid Blocks : 0
Heartbeat CPU 0 instructions: 130000001 cycles: 58574196 heartbeat IPC: 2.02753 cumulative IPC: 2.21941 (Simulation time: 26 hr 26 min 45 sec) 
 Total Blocks : 262144 Invalid Blocks : 0
Heartbeat CPU 4 instructions: 130000001 cycles: 58574345 heartbeat IPC: 2.02753 cumulative IPC: 2.2194 (Simulation time: 26 hr 26 min 47 sec) 
 Total Blocks : 262144 Invalid Blocks : 0
Heartbeat CPU 2 instructions: 130000001 cycles: 58574405 heartbeat IPC: 2.02753 cumulative IPC: 2.2194 (Simulation time: 26 hr 26 min 47 sec) 
 Total Blocks : 262144 Invalid Blocks : 0
Heartbeat CPU 5 instructions: 130000001 cycles: 58574416 heartbeat IPC: 2.02753 cumulative IPC: 2.2194 (Simulation time: 26 hr 26 min 47 sec) 
 Total Blocks : 262144 Invalid Blocks : 0
Heartbeat CPU 1 instructions: 130000001 cycles: 58574425 heartbeat IPC: 2.02753 cumulative IPC: 2.2194 (Simulation time: 26 hr 26 min 47 sec) 
 Total Blocks : 262144 Invalid Blocks : 0
Heartbeat CPU 3 instructions: 130000001 cycles: 58574579 heartbeat IPC: 2.02753 cumulative IPC: 2.21939 (Simulation time: 26 hr 26 min 48 sec) 
 Total Blocks : 262144 Invalid Blocks : 0
Heartbeat CPU 7 instructions: 130000001 cycles: 58574627 heartbeat IPC: 2.02753 cumulative IPC: 2.21939 (Simulation time: 26 hr 26 min 48 sec) 
 Total Blocks : 262144 Invalid Blocks : 0
Heartbeat CPU 6 instructions: 130000001 cycles: 58574756 heartbeat IPC: 2.02753 cumulative IPC: 2.21939 (Simulation time: 26 hr 26 min 48 sec) 
 Total Blocks : 262144 Invalid Blocks : 0
Heartbeat CPU 0 instructions: 140000000 cycles: 63514080 heartbeat IPC: 2.02434 cumulative IPC: 2.20424 (Simulation time: 27 hr 14 min 5 sec) 
 Total Blocks : 262144 Invalid Blocks : 0
Heartbeat CPU 4 instructions: 140000000 cycles: 63514226 heartbeat IPC: 2.02434 cumulative IPC: 2.20423 (Simulation time: 27 hr 14 min 7 sec) 
 Total Blocks : 262144 Invalid Blocks : 0
Heartbeat CPU 2 instructions: 140000000 cycles: 63514287 heartbeat IPC: 2.02434 cumulative IPC: 2.20423 (Simulation time: 27 hr 14 min 7 sec) 
 Total Blocks : 262144 Invalid Blocks : 0
Heartbeat CPU 5 instructions: 140000000 cycles: 63514297 heartbeat IPC: 2.02434 cumulative IPC: 2.20423 (Simulation time: 27 hr 14 min 7 sec) 
 Total Blocks : 262144 Invalid Blocks : 0
Heartbeat CPU 1 instructions: 140000000 cycles: 63514307 heartbeat IPC: 2.02434 cumulative IPC: 2.20423 (Simulation time: 27 hr 14 min 7 sec) 
 Total Blocks : 262144 Invalid Blocks : 0
Heartbeat CPU 3 instructions: 140000000 cycles: 63514459 heartbeat IPC: 2.02434 cumulative IPC: 2.20422 (Simulation time: 27 hr 14 min 7 sec) 
 Total Blocks : 262144 Invalid Blocks : 0
Heartbeat CPU 7 instructions: 140000000 cycles: 63514508 heartbeat IPC: 2.02434 cumulative IPC: 2.20422 (Simulation time: 27 hr 14 min 7 sec) 
 Total Blocks : 262144 Invalid Blocks : 0
Heartbeat CPU 6 instructions: 140000000 cycles: 63514639 heartbeat IPC: 2.02434 cumulative IPC: 2.20422 (Simulation time: 27 hr 14 min 7 sec) 
 Total Blocks : 262144 Invalid Blocks : 0
Heartbeat CPU 0 instructions: 150000002 cycles: 68424249 heartbeat IPC: 2.03659 cumulative IPC: 2.19221 (Simulation time: 28 hr 12 min 23 sec) 
 Total Blocks : 262144 Invalid Blocks : 0
Heartbeat CPU 4 instructions: 150000002 cycles: 68424432 heartbeat IPC: 2.03657 cumulative IPC: 2.1922 (Simulation time: 28 hr 12 min 24 sec) 
 Total Blocks : 262144 Invalid Blocks : 0
Heartbeat CPU 1 instructions: 150000002 cycles: 68424440 heartbeat IPC: 2.03661 cumulative IPC: 2.1922 (Simulation time: 28 hr 12 min 24 sec) 
 Total Blocks : 262144 Invalid Blocks : 0
Heartbeat CPU 5 instructions: 150000002 cycles: 68424447 heartbeat IPC: 2.0366 cumulative IPC: 2.1922 (Simulation time: 28 hr 12 min 24 sec) 
 Total Blocks : 262144 Invalid Blocks : 0
Heartbeat CPU 2 instructions: 150000002 cycles: 68424561 heartbeat IPC: 2.03655 cumulative IPC: 2.1922 (Simulation time: 28 hr 12 min 24 sec) 
 Total Blocks : 262144 Invalid Blocks : 0
Heartbeat CPU 3 instructions: 150000002 cycles: 68424568 heartbeat IPC: 2.03662 cumulative IPC: 2.1922 (Simulation time: 28 hr 12 min 24 sec) 
 Total Blocks : 262144 Invalid Blocks : 0
Heartbeat CPU 7 instructions: 150000002 cycles: 68424708 heartbeat IPC: 2.03658 cumulative IPC: 2.19219 (Simulation time: 28 hr 12 min 24 sec) 
 Total Blocks : 262144 Invalid Blocks : 0
Heartbeat CPU 6 instructions: 150000002 cycles: 68424890 heartbeat IPC: 2.03656 cumulative IPC: 2.19218 (Simulation time: 28 hr 12 min 25 sec) 
 Total Blocks : 262144 Invalid Blocks : 0
Heartbeat CPU 0 instructions: 160000000 cycles: 72978908 heartbeat IPC: 2.19555 cumulative IPC: 2.19241 (Simulation time: 29 hr 35 min 34 sec) 
 Total Blocks : 262144 Invalid Blocks : 0
Heartbeat CPU 4 instructions: 160000000 cycles: 72979103 heartbeat IPC: 2.19555 cumulative IPC: 2.19241 (Simulation time: 29 hr 35 min 36 sec) 
 Total Blocks : 262144 Invalid Blocks : 0
Heartbeat CPU 1 instructions: 160000000 cycles: 72979125 heartbeat IPC: 2.19554 cumulative IPC: 2.19241 (Simulation time: 29 hr 35 min 36 sec) 
 Total Blocks : 262144 Invalid Blocks : 0
Heartbeat CPU 5 instructions: 160000000 cycles: 72979153 heartbeat IPC: 2.19553 cumulative IPC: 2.19241 (Simulation time: 29 hr 35 min 36 sec) 
 Total Blocks : 262144 Invalid Blocks : 0
Heartbeat CPU 2 instructions: 160000000 cycles: 72979221 heartbeat IPC: 2.19555 cumulative IPC: 2.1924 (Simulation time: 29 hr 35 min 36 sec) 
 Total Blocks : 262144 Invalid Blocks : 0
Heartbeat CPU 3 instructions: 160000000 cycles: 72979294 heartbeat IPC: 2.19552 cumulative IPC: 2.1924 (Simulation time: 29 hr 35 min 36 sec) 
 Total Blocks : 262144 Invalid Blocks : 0
Heartbeat CPU 7 instructions: 160000000 cycles: 72979458 heartbeat IPC: 2.19551 cumulative IPC: 2.1924 (Simulation time: 29 hr 35 min 36 sec) 
 Total Blocks : 262144 Invalid Blocks : 0
Heartbeat CPU 6 instructions: 160000000 cycles: 72979595 heartbeat IPC: 2.19553 cumulative IPC: 2.19239 (Simulation time: 29 hr 35 min 37 sec) 
 Total Blocks : 262144 Invalid Blocks : 0
Heartbeat CPU 0 instructions: 170000003 cycles: 77839109 heartbeat IPC: 2.05753 cumulative IPC: 2.18399 (Simulation time: 31 hr 12 min 54 sec) 
 Total Blocks : 262144 Invalid Blocks : 0
Heartbeat CPU 1 instructions: 170000003 cycles: 77839228 heartbeat IPC: 2.05757 cumulative IPC: 2.18399 (Simulation time: 31 hr 12 min 57 sec) 
 Total Blocks : 262144 Invalid Blocks : 0
Heartbeat CPU 4 instructions: 170000003 cycles: 77839297 heartbeat IPC: 2.05753 cumulative IPC: 2.18399 (Simulation time: 31 hr 12 min 57 sec) 
 Total Blocks : 262144 Invalid Blocks : 0
Heartbeat CPU 2 instructions: 170000003 cycles: 77839465 heartbeat IPC: 2.05751 cumulative IPC: 2.18398 (Simulation time: 31 hr 12 min 57 sec) 
 Total Blocks : 262144 Invalid Blocks : 0
Heartbeat CPU 5 instructions: 170000003 cycles: 77839468 heartbeat IPC: 2.05748 cumulative IPC: 2.18398 (Simulation time: 31 hr 12 min 57 sec) 
 Total Blocks : 262144 Invalid Blocks : 0
Heartbeat CPU 3 instructions: 170000003 cycles: 77839535 heartbeat IPC: 2.05751 cumulative IPC: 2.18398 (Simulation time: 31 hr 12 min 57 sec) 
 Total Blocks : 262144 Invalid Blocks : 0
Heartbeat CPU 7 instructions: 170000003 cycles: 77839689 heartbeat IPC: 2.05752 cumulative IPC: 2.18398 (Simulation time: 31 hr 12 min 57 sec) 
 Total Blocks : 262144 Invalid Blocks : 0
Heartbeat CPU 6 instructions: 170000003 cycles: 77839929 heartbeat IPC: 2.05747 cumulative IPC: 2.18397 (Simulation time: 31 hr 12 min 57 sec) 
 Total Blocks : 262144 Invalid Blocks : 0
Heartbeat CPU 0 instructions: 180000003 cycles: 82633555 heartbeat IPC: 2.08575 cumulative IPC: 2.17829 (Simulation time: 32 hr 20 min 37 sec) 
 Total Blocks : 262144 Invalid Blocks : 0
Heartbeat CPU 1 instructions: 180000003 cycles: 82633707 heartbeat IPC: 2.08573 cumulative IPC: 2.17829 (Simulation time: 32 hr 20 min 53 sec) 
 Total Blocks : 262144 Invalid Blocks : 0
Heartbeat CPU 4 instructions: 180000003 cycles: 82633804 heartbeat IPC: 2.08572 cumulative IPC: 2.17829 (Simulation time: 32 hr 20 min 55 sec) 
 Total Blocks : 262144 Invalid Blocks : 0
Heartbeat CPU 2 instructions: 180000003 cycles: 82633948 heartbeat IPC: 2.08573 cumulative IPC: 2.17828 (Simulation time: 32 hr 20 min 56 sec) 
 Total Blocks : 262144 Invalid Blocks : 0
Heartbeat CPU 5 instructions: 180000003 cycles: 82633959 heartbeat IPC: 2.08573 cumulative IPC: 2.17828 (Simulation time: 32 hr 20 min 56 sec) 
 Total Blocks : 262144 Invalid Blocks : 0
Heartbeat CPU 3 instructions: 180000003 cycles: 82634031 heartbeat IPC: 2.08573 cumulative IPC: 2.17828 (Simulation time: 32 hr 20 min 56 sec) 
 Total Blocks : 262144 Invalid Blocks : 0
Heartbeat CPU 7 instructions: 180000003 cycles: 82634174 heartbeat IPC: 2.08573 cumulative IPC: 2.17828 (Simulation time: 32 hr 20 min 56 sec) 
 Total Blocks : 262144 Invalid Blocks : 0
Heartbeat CPU 6 instructions: 180000003 cycles: 82634454 heartbeat IPC: 2.08571 cumulative IPC: 2.17827 (Simulation time: 32 hr 20 min 57 sec) 
 Total Blocks : 262144 Invalid Blocks : 0
Heartbeat CPU 0 instructions: 190000000 cycles: 87505986 heartbeat IPC: 2.05236 cumulative IPC: 2.17128 (Simulation time: 33 hr 27 min 29 sec) 
 Total Blocks : 262144 Invalid Blocks : 0
Heartbeat CPU 1 instructions: 190000000 cycles: 87506180 heartbeat IPC: 2.05235 cumulative IPC: 2.17128 (Simulation time: 33 hr 27 min 31 sec) 
 Total Blocks : 262144 Invalid Blocks : 0
Heartbeat CPU 4 instructions: 190000000 cycles: 87506255 heartbeat IPC: 2.05235 cumulative IPC: 2.17127 (Simulation time: 33 hr 27 min 31 sec) 
 Total Blocks : 262144 Invalid Blocks : 0
Heartbeat CPU 2 instructions: 190000000 cycles: 87506393 heartbeat IPC: 2.05236 cumulative IPC: 2.17127 (Simulation time: 33 hr 27 min 31 sec) 
 Total Blocks : 262144 Invalid Blocks : 0
Heartbeat CPU 5 instructions: 190000000 cycles: 87506414 heartbeat IPC: 2.05235 cumulative IPC: 2.17127 (Simulation time: 33 hr 27 min 31 sec) 
 Total Blocks : 262144 Invalid Blocks : 0
Heartbeat CPU 3 instructions: 190000000 cycles: 87506492 heartbeat IPC: 2.05235 cumulative IPC: 2.17127 (Simulation time: 33 hr 27 min 31 sec) 
 Total Blocks : 262144 Invalid Blocks : 0
Heartbeat CPU 7 instructions: 190000000 cycles: 87506625 heartbeat IPC: 2.05235 cumulative IPC: 2.17126 (Simulation time: 33 hr 27 min 31 sec) 
 Total Blocks : 262144 Invalid Blocks : 0
Heartbeat CPU 6 instructions: 190000000 cycles: 87506887 heartbeat IPC: 2.05236 cumulative IPC: 2.17126 (Simulation time: 33 hr 27 min 32 sec) 
 Total Blocks : 262144 Invalid Blocks : 0
Heartbeat CPU 0 instructions: 200000000 cycles: 92293717 heartbeat IPC: 2.08867 cumulative IPC: 2.16699 (Simulation time: 34 hr 36 min 13 sec) 
 Total Blocks : 262144 Invalid Blocks : 0
Heartbeat CPU 1 instructions: 200000000 cycles: 92293928 heartbeat IPC: 2.08866 cumulative IPC: 2.16699 (Simulation time: 34 hr 36 min 15 sec) 
 Total Blocks : 262144 Invalid Blocks : 0
Heartbeat CPU 4 instructions: 200000000 cycles: 92294005 heartbeat IPC: 2.08866 cumulative IPC: 2.16699 (Simulation time: 34 hr 36 min 15 sec) 
 Total Blocks : 262144 Invalid Blocks : 0
Heartbeat CPU 5 instructions: 200000000 cycles: 92294150 heartbeat IPC: 2.08867 cumulative IPC: 2.16698 (Simulation time: 34 hr 36 min 15 sec) 
 Total Blocks : 262144 Invalid Blocks : 0
Heartbeat CPU 2 instructions: 200000000 cycles: 92294151 heartbeat IPC: 2.08866 cumulative IPC: 2.16698 (Simulation time: 34 hr 36 min 15 sec) 
 Total Blocks : 262144 Invalid Blocks : 0
Heartbeat CPU 3 instructions: 200000000 cycles: 92294232 heartbeat IPC: 2.08867 cumulative IPC: 2.16698 (Simulation time: 34 hr 36 min 15 sec) 
 Total Blocks : 262144 Invalid Blocks : 0
Heartbeat CPU 7 instructions: 200000000 cycles: 92294353 heartbeat IPC: 2.08867 cumulative IPC: 2.16698 (Simulation time: 34 hr 36 min 15 sec) 
 Total Blocks : 262144 Invalid Blocks : 0
Heartbeat CPU 6 instructions: 200000000 cycles: 92294636 heartbeat IPC: 2.08866 cumulative IPC: 2.16697 (Simulation time: 34 hr 36 min 15 sec) 
 Total Blocks : 262144 Invalid Blocks : 0

Warmup complete CPU 0 instructions: 200001983 cycles: 92294637 (Simulation time: 34 hr 36 min 15 sec) 
Warmup complete CPU 1 instructions: 200001486 cycles: 92294637 (Simulation time: 34 hr 36 min 15 sec) 
Warmup complete CPU 2 instructions: 200001007 cycles: 92294637 (Simulation time: 34 hr 36 min 15 sec) 
Warmup complete CPU 3 instructions: 200000796 cycles: 92294637 (Simulation time: 34 hr 36 min 15 sec) 
Warmup complete CPU 4 instructions: 200001349 cycles: 92294637 (Simulation time: 34 hr 36 min 15 sec) 
Warmup complete CPU 5 instructions: 200001007 cycles: 92294637 (Simulation time: 34 hr 36 min 15 sec) 
Warmup complete CPU 6 instructions: 200000004 cycles: 92294637 (Simulation time: 34 hr 36 min 15 sec) 
Warmup complete CPU 7 instructions: 200000555 cycles: 92294636 (Simulation time: 34 hr 36 min 15 sec) 

Heartbeat CPU 5 instructions: 210000003 cycles: 99044965 heartbeat IPC: 1.4813 cumulative IPC: 1.48126 (Simulation time: 35 hr 45 min 37 sec) 
 Total Blocks : 262144 Invalid Blocks : 0
Heartbeat CPU 4 instructions: 210000003 cycles: 99050726 heartbeat IPC: 1.48001 cumulative IPC: 1.47995 (Simulation time: 35 hr 45 min 41 sec) 
 Total Blocks : 262144 Invalid Blocks : 0
Heartbeat CPU 0 instructions: 210000003 cycles: 99059402 heartbeat IPC: 1.47805 cumulative IPC: 1.47796 (Simulation time: 35 hr 45 min 44 sec) 
 Total Blocks : 262144 Invalid Blocks : 0
Heartbeat CPU 2 instructions: 210000003 cycles: 99071223 heartbeat IPC: 1.47556 cumulative IPC: 1.47552 (Simulation time: 35 hr 45 min 48 sec) 
 Total Blocks : 262144 Invalid Blocks : 0
Heartbeat CPU 1 instructions: 210000003 cycles: 99075931 heartbeat IPC: 1.47449 cumulative IPC: 1.47443 (Simulation time: 35 hr 45 min 49 sec) 
 Total Blocks : 262144 Invalid Blocks : 0
Heartbeat CPU 6 instructions: 210000003 cycles: 99080387 heartbeat IPC: 1.47368 cumulative IPC: 1.47368 (Simulation time: 35 hr 45 min 51 sec) 
 Total Blocks : 262144 Invalid Blocks : 0
Heartbeat CPU 7 instructions: 210000003 cycles: 99085593 heartbeat IPC: 1.47249 cumulative IPC: 1.47247 (Simulation time: 35 hr 45 min 54 sec) 
 Total Blocks : 262144 Invalid Blocks : 0
Heartbeat CPU 3 instructions: 210000003 cycles: 99109980 heartbeat IPC: 1.46719 cumulative IPC: 1.46716 (Simulation time: 35 hr 46 min 4 sec) 
 Total Blocks : 262144 Invalid Blocks : 0
Heartbeat CPU 4 instructions: 220000000 cycles: 106257735 heartbeat IPC: 1.38754 cumulative IPC: 1.43225 (Simulation time: 36 hr 59 min 44 sec) 
 Total Blocks : 262144 Invalid Blocks : 0
Heartbeat CPU 0 instructions: 220000000 cycles: 106259567 heartbeat IPC: 1.38886 cumulative IPC: 1.43202 (Simulation time: 36 hr 59 min 47 sec) 
 Total Blocks : 262144 Invalid Blocks : 0
Heartbeat CPU 5 instructions: 220000000 cycles: 106270413 heartbeat IPC: 1.384 cumulative IPC: 1.43098 (Simulation time: 36 hr 59 min 51 sec) 
 Total Blocks : 262144 Invalid Blocks : 0
Heartbeat CPU 6 instructions: 220000000 cycles: 106284157 heartbeat IPC: 1.38816 cumulative IPC: 1.42964 (Simulation time: 37 hr 0 min 15 sec) 
 Total Blocks : 262144 Invalid Blocks : 0
Heartbeat CPU 7 instructions: 220000000 cycles: 106290663 heartbeat IPC: 1.38791 cumulative IPC: 1.42894 (Simulation time: 37 hr 0 min 19 sec) 
 Total Blocks : 262144 Invalid Blocks : 0
Heartbeat CPU 2 instructions: 220000000 cycles: 106297152 heartbeat IPC: 1.3839 cumulative IPC: 1.42824 (Simulation time: 37 hr 0 min 23 sec) 
 Total Blocks : 262144 Invalid Blocks : 0
Heartbeat CPU 1 instructions: 220000000 cycles: 106309634 heartbeat IPC: 1.38242 cumulative IPC: 1.42694 (Simulation time: 37 hr 0 min 28 sec) 
 Total Blocks : 262144 Invalid Blocks : 0
Heartbeat CPU 3 instructions: 220000000 cycles: 106356731 heartbeat IPC: 1.37993 cumulative IPC: 1.42221 (Simulation time: 37 hr 0 min 51 sec) 
 Total Blocks : 262144 Invalid Blocks : 0
Heartbeat CPU 2 instructions: 230000000 cycles: 118395108 heartbeat IPC: 0.826586 cumulative IPC: 1.14937 (Simulation time: 38 hr 29 min 11 sec) 
 Total Blocks : 262144 Invalid Blocks : 0
Heartbeat CPU 4 instructions: 230000000 cycles: 118399577 heartbeat IPC: 0.823598 cumulative IPC: 1.14916 (Simulation time: 38 hr 29 min 14 sec) 
 Total Blocks : 262144 Invalid Blocks : 0
Heartbeat CPU 7 instructions: 230000000 cycles: 118417690 heartbeat IPC: 0.824604 cumulative IPC: 1.14839 (Simulation time: 38 hr 29 min 21 sec) 
 Total Blocks : 262144 Invalid Blocks : 0
Heartbeat CPU 6 instructions: 230000000 cycles: 118452904 heartbeat IPC: 0.821777 cumulative IPC: 1.14686 (Simulation time: 38 hr 29 min 34 sec) 
 Total Blocks : 262144 Invalid Blocks : 0
Heartbeat CPU 1 instructions: 230000000 cycles: 118510179 heartbeat IPC: 0.819636 cumulative IPC: 1.1443 (Simulation time: 38 hr 30 min 16 sec) 
 Total Blocks : 262144 Invalid Blocks : 0
Heartbeat CPU 0 instructions: 230000000 cycles: 118577293 heartbeat IPC: 0.811838 cumulative IPC: 1.14136 (Simulation time: 38 hr 30 min 46 sec) 
 Total Blocks : 262144 Invalid Blocks : 0
Heartbeat CPU 5 instructions: 230000000 cycles: 118610568 heartbeat IPC: 0.810363 cumulative IPC: 1.13996 (Simulation time: 38 hr 31 min 0 sec) 
 Total Blocks : 262144 Invalid Blocks : 0
Heartbeat CPU 3 instructions: 230000000 cycles: 118794070 heartbeat IPC: 0.804031 cumulative IPC: 1.13207 (Simulation time: 38 hr 32 min 31 sec) 
 Total Blocks : 262144 Invalid Blocks : 0
Heartbeat CPU 4 instructions: 240000001 cycles: 136197643 heartbeat IPC: 0.561859 cumulative IPC: 0.911069 (Simulation time: 40 hr 15 min 59 sec) 
 Total Blocks : 262144 Invalid Blocks : 0
Heartbeat CPU 2 instructions: 240000001 cycles: 136225762 heartbeat IPC: 0.560832 cumulative IPC: 0.910493 (Simulation time: 40 hr 16 min 18 sec) 
 Total Blocks : 262144 Invalid Blocks : 0
Heartbeat CPU 5 instructions: 240000001 cycles: 136232096 heartbeat IPC: 0.567488 cumulative IPC: 0.910362 (Simulation time: 40 hr 16 min 24 sec) 
 Total Blocks : 262144 Invalid Blocks : 0
Heartbeat CPU 6 instructions: 240000001 cycles: 136236249 heartbeat IPC: 0.562324 cumulative IPC: 0.910299 (Simulation time: 40 hr 16 min 24 sec) 
 Total Blocks : 262144 Invalid Blocks : 0
Heartbeat CPU 7 instructions: 240000001 cycles: 136240240 heartbeat IPC: 0.561087 cumulative IPC: 0.910204 (Simulation time: 40 hr 16 min 25 sec) 
 Total Blocks : 262144 Invalid Blocks : 0
Heartbeat CPU 1 instructions: 240000001 cycles: 136802353 heartbeat IPC: 0.546682 cumulative IPC: 0.898687 (Simulation time: 40 hr 19 min 20 sec) 
 Total Blocks : 262144 Invalid Blocks : 0
Heartbeat CPU 0 instructions: 240000001 cycles: 136941391 heartbeat IPC: 0.544541 cumulative IPC: 0.895877 (Simulation time: 40 hr 19 min 57 sec) 
 Total Blocks : 262144 Invalid Blocks : 0
Heartbeat CPU 3 instructions: 240000001 cycles: 137375760 heartbeat IPC: 0.538164 cumulative IPC: 0.887272 (Simulation time: 40 hr 22 min 9 sec) 
 Total Blocks : 262144 Invalid Blocks : 0
Heartbeat CPU 2 instructions: 250000001 cycles: 152350187 heartbeat IPC: 0.620177 cumulative IPC: 0.832546 (Simulation time: 41 hr 33 min 52 sec) 
 Total Blocks : 262144 Invalid Blocks : 0
Heartbeat CPU 4 instructions: 250000000 cycles: 152366552 heartbeat IPC: 0.618471 cumulative IPC: 0.832313 (Simulation time: 41 hr 33 min 59 sec) 
 Total Blocks : 262144 Invalid Blocks : 0
Heartbeat CPU 6 instructions: 250000001 cycles: 152378059 heartbeat IPC: 0.619509 cumulative IPC: 0.832176 (Simulation time: 41 hr 34 min 3 sec) 
 Total Blocks : 262144 Invalid Blocks : 0
Heartbeat CPU 5 instructions: 250000001 cycles: 152467508 heartbeat IPC: 0.615938 cumulative IPC: 0.830923 (Simulation time: 41 hr 34 min 38 sec) 
 Total Blocks : 262144 Invalid Blocks : 0
Heartbeat CPU 7 instructions: 250000001 cycles: 152559089 heartbeat IPC: 0.612788 cumulative IPC: 0.829667 (Simulation time: 41 hr 35 min 23 sec) 
 Total Blocks : 262144 Invalid Blocks : 0
Heartbeat CPU 1 instructions: 250000001 cycles: 153240782 heartbeat IPC: 0.608331 cumulative IPC: 0.820372 (Simulation time: 41 hr 40 min 4 sec) 
 Total Blocks : 262144 Invalid Blocks : 0
Heartbeat CPU 0 instructions: 250000000 cycles: 153429646 heartbeat IPC: 0.606492 cumulative IPC: 0.81783 (Simulation time: 41 hr 41 min 26 sec) 
 Total Blocks : 262144 Invalid Blocks : 0
Heartbeat CPU 3 instructions: 250000001 cycles: 153623699 heartbeat IPC: 0.615463 cumulative IPC: 0.815261 (Simulation time: 41 hr 42 min 42 sec) 
 Total Blocks : 262144 Invalid Blocks : 0
Heartbeat CPU 4 instructions: 260000001 cycles: 170807176 heartbeat IPC: 0.542281 cumulative IPC: 0.764192 (Simulation time: 43 hr 10 min 41 sec) 
 Total Blocks : 262144 Invalid Blocks : 0
Heartbeat CPU 2 instructions: 260000001 cycles: 170834520 heartbeat IPC: 0.540999 cumulative IPC: 0.76393 (Simulation time: 43 hr 10 min 48 sec) 
 Total Blocks : 262144 Invalid Blocks : 0
Heartbeat CPU 6 instructions: 260000001 cycles: 171240165 heartbeat IPC: 0.530163 cumulative IPC: 0.760018 (Simulation time: 43 hr 12 min 51 sec) 
 Total Blocks : 262144 Invalid Blocks : 0
Heartbeat CPU 5 instructions: 260000001 cycles: 171516544 heartbeat IPC: 0.524961 cumulative IPC: 0.757354 (Simulation time: 43 hr 14 min 17 sec) 
 Total Blocks : 262144 Invalid Blocks : 0
Heartbeat CPU 7 instructions: 260000001 cycles: 171817250 heartbeat IPC: 0.51926 cumulative IPC: 0.754495 (Simulation time: 43 hr 15 min 45 sec) 
 Total Blocks : 262144 Invalid Blocks : 0
Heartbeat CPU 1 instructions: 260000001 cycles: 172779558 heartbeat IPC: 0.511803 cumulative IPC: 0.745463 (Simulation time: 43 hr 20 min 39 sec) 
 Total Blocks : 262144 Invalid Blocks : 0
Heartbeat CPU 0 instructions: 260000001 cycles: 172971036 heartbeat IPC: 0.511734 cumulative IPC: 0.743687 (Simulation time: 43 hr 21 min 30 sec) 
 Total Blocks : 262144 Invalid Blocks : 0
Heartbeat CPU 3 instructions: 260000001 cycles: 173308611 heartbeat IPC: 0.508003 cumulative IPC: 0.740603 (Simulation time: 43 hr 23 min 27 sec) 
 Total Blocks : 262144 Invalid Blocks : 0
Heartbeat CPU 2 instructions: 270000000 cycles: 182702846 heartbeat IPC: 0.842579 cumulative IPC: 0.774255 (Simulation time: 44 hr 29 min 54 sec) 
 Total Blocks : 262144 Invalid Blocks : 0
Heartbeat CPU 4 instructions: 270000000 cycles: 182759912 heartbeat IPC: 0.836628 cumulative IPC: 0.773763 (Simulation time: 44 hr 30 min 27 sec) 
 Total Blocks : 262144 Invalid Blocks : 0
Heartbeat CPU 6 instructions: 270000000 cycles: 183151026 heartbeat IPC: 0.83957 cumulative IPC: 0.770447 (Simulation time: 44 hr 33 min 31 sec) 
 Total Blocks : 262144 Invalid Blocks : 0
Heartbeat CPU 5 instructions: 270000000 cycles: 183395662 heartbeat IPC: 0.841813 cumulative IPC: 0.768367 (Simulation time: 44 hr 35 min 21 sec) 
 Total Blocks : 262144 Invalid Blocks : 0
Heartbeat CPU 7 instructions: 270000000 cycles: 183599693 heartbeat IPC: 0.84872 cumulative IPC: 0.766655 (Simulation time: 44 hr 36 min 53 sec) 
 Total Blocks : 262144 Invalid Blocks : 0
Heartbeat CPU 1 instructions: 270000000 cycles: 184440749 heartbeat IPC: 0.857545 cumulative IPC: 0.759647 (Simulation time: 44 hr 43 min 12 sec) 
 Total Blocks : 262144 Invalid Blocks : 0
Heartbeat CPU 0 instructions: 270000000 cycles: 184636563 heartbeat IPC: 0.857226 cumulative IPC: 0.758031 (Simulation time: 44 hr 44 min 36 sec) 
 Total Blocks : 262144 Invalid Blocks : 0
Heartbeat CPU 3 instructions: 270000000 cycles: 184885686 heartbeat IPC: 0.863776 cumulative IPC: 0.756004 (Simulation time: 44 hr 46 min 30 sec) 
 Total Blocks : 262144 Invalid Blocks : 0
Heartbeat CPU 4 instructions: 280000001 cycles: 228467352 heartbeat IPC: 0.218783 cumulative IPC: 0.587479 (Simulation time: 47 hr 10 min 59 sec) 
 Total Blocks : 262144 Invalid Blocks : 0
Heartbeat CPU 2 instructions: 280000001 cycles: 228532963 heartbeat IPC: 0.218197 cumulative IPC: 0.587199 (Simulation time: 47 hr 11 min 22 sec) 
 Total Blocks : 262144 Invalid Blocks : 0
Heartbeat CPU 6 instructions: 280000002 cycles: 229014024 heartbeat IPC: 0.218041 cumulative IPC: 0.58514 (Simulation time: 47 hr 14 min 29 sec) 
 Total Blocks : 262144 Invalid Blocks : 0
Heartbeat CPU 5 instructions: 280000001 cycles: 229256347 heartbeat IPC: 0.218052 cumulative IPC: 0.584098 (Simulation time: 47 hr 16 min 9 sec) 
 Total Blocks : 262144 Invalid Blocks : 0
Heartbeat CPU 7 instructions: 280000001 cycles: 230046593 heartbeat IPC: 0.2153 cumulative IPC: 0.58075 (Simulation time: 47 hr 21 min 1 sec) 
 Total Blocks : 262144 Invalid Blocks : 0
Heartbeat CPU 1 instructions: 280000002 cycles: 231279899 heartbeat IPC: 0.213497 cumulative IPC: 0.57559 (Simulation time: 47 hr 27 min 20 sec) 
 Total Blocks : 262144 Invalid Blocks : 0
Heartbeat CPU 0 instructions: 280000001 cycles: 231665654 heartbeat IPC: 0.212634 cumulative IPC: 0.573993 (Simulation time: 47 hr 29 min 6 sec) 
 Total Blocks : 262144 Invalid Blocks : 0
Heartbeat CPU 3 instructions: 280000002 cycles: 232014773 heartbeat IPC: 0.212183 cumulative IPC: 0.572567 (Simulation time: 47 hr 30 min 38 sec) 
 Total Blocks : 262144 Invalid Blocks : 0
Heartbeat CPU 4 instructions: 290000002 cycles: 254270338 heartbeat IPC: 0.387552 cumulative IPC: 0.555631 (Simulation time: 49 hr 1 min 36 sec) 
 Total Blocks : 262144 Invalid Blocks : 0
Heartbeat CPU 2 instructions: 290000002 cycles: 254298418 heartbeat IPC: 0.388117 cumulative IPC: 0.555536 (Simulation time: 49 hr 1 min 44 sec) 
 Total Blocks : 262144 Invalid Blocks : 0
Heartbeat CPU 6 instructions: 290000002 cycles: 254707366 heartbeat IPC: 0.389206 cumulative IPC: 0.554144 (Simulation time: 49 hr 3 min 39 sec) 
 Total Blocks : 262144 Invalid Blocks : 0
Heartbeat CPU 5 instructions: 290000002 cycles: 254745966 heartbeat IPC: 0.392317 cumulative IPC: 0.554006 (Simulation time: 49 hr 3 min 49 sec) 
 Total Blocks : 262144 Invalid Blocks : 0
Heartbeat CPU 7 instructions: 290000002 cycles: 255245762 heartbeat IPC: 0.396839 cumulative IPC: 0.552309 (Simulation time: 49 hr 6 min 13 sec) 
 Total Blocks : 262144 Invalid Blocks : 0
Heartbeat CPU 1 instructions: 290000002 cycles: 255978802 heartbeat IPC: 0.404876 cumulative IPC: 0.54983 (Simulation time: 49 hr 9 min 12 sec) 
 Total Blocks : 262144 Invalid Blocks : 0
Heartbeat CPU 0 instructions: 290000002 cycles: 256072432 heartbeat IPC: 0.409722 cumulative IPC: 0.549513 (Simulation time: 49 hr 9 min 36 sec) 
 Total Blocks : 262144 Invalid Blocks : 0
Heartbeat CPU 3 instructions: 290000002 cycles: 256137657 heartbeat IPC: 0.414544 cumulative IPC: 0.549301 (Simulation time: 49 hr 9 min 51 sec) 
 Total Blocks : 262144 Invalid Blocks : 0
Heartbeat CPU 4 instructions: 300000001 cycles: 276092584 heartbeat IPC: 0.458248 cumulative IPC: 0.544068 (Simulation time: 50 hr 36 min 55 sec) 
 Total Blocks : 262144 Invalid Blocks : 0
Heartbeat CPU 2 instructions: 300000001 cycles: 276093849 heartbeat IPC: 0.458812 cumulative IPC: 0.544066 (Simulation time: 50 hr 36 min 56 sec) 
 Total Blocks : 262144 Invalid Blocks : 0
Heartbeat CPU 6 instructions: 300000001 cycles: 276624861 heartbeat IPC: 0.456256 cumulative IPC: 0.542505 (Simulation time: 50 hr 39 min 6 sec) 
 Total Blocks : 262144 Invalid Blocks : 0
Heartbeat CPU 5 instructions: 300000001 cycles: 276630849 heartbeat IPC: 0.456936 cumulative IPC: 0.542482 (Simulation time: 50 hr 39 min 8 sec) 
 Total Blocks : 262144 Invalid Blocks : 0
Heartbeat CPU 7 instructions: 300000001 cycles: 277406793 heartbeat IPC: 0.451243 cumulative IPC: 0.54021 (Simulation time: 50 hr 42 min 29 sec) 
 Total Blocks : 262144 Invalid Blocks : 0
Heartbeat CPU 1 instructions: 300000001 cycles: 277783580 heartbeat IPC: 0.458615 cumulative IPC: 0.539108 (Simulation time: 50 hr 44 min 4 sec) 
 Total Blocks : 262144 Invalid Blocks : 0
Heartbeat CPU 0 instructions: 300000001 cycles: 277836483 heartbeat IPC: 0.459473 cumulative IPC: 0.538951 (Simulation time: 50 hr 44 min 16 sec) 
 Total Blocks : 262144 Invalid Blocks : 0
Heartbeat CPU 3 instructions: 300000001 cycles: 278192251 heartbeat IPC: 0.45342 cumulative IPC: 0.537926 (Simulation time: 50 hr 45 min 49 sec) 
 Total Blocks : 262144 Invalid Blocks : 0
Heartbeat CPU 2 instructions: 310000003 cycles: 312581748 heartbeat IPC: 0.274064 cumulative IPC: 0.499344 (Simulation time: 52 hr 33 min 9 sec) 
 Total Blocks : 262144 Invalid Blocks : 0
Heartbeat CPU 4 instructions: 310000003 cycles: 312679860 heartbeat IPC: 0.273319 cumulative IPC: 0.49912 (Simulation time: 52 hr 33 min 30 sec) 
 Total Blocks : 262144 Invalid Blocks : 0
Heartbeat CPU 5 instructions: 310000003 cycles: 312997760 heartbeat IPC: 0.274975 cumulative IPC: 0.498403 (Simulation time: 52 hr 34 min 36 sec) 
 Total Blocks : 262144 Invalid Blocks : 0
Heartbeat CPU 6 instructions: 310000003 cycles: 313169237 heartbeat IPC: 0.27364 cumulative IPC: 0.49802 (Simulation time: 52 hr 35 min 23 sec) 
 Total Blocks : 262144 Invalid Blocks : 0
Heartbeat CPU 7 instructions: 310000003 cycles: 313867817 heartbeat IPC: 0.274266 cumulative IPC: 0.496447 (Simulation time: 52 hr 37 min 50 sec) 
 Total Blocks : 262144 Invalid Blocks : 0
Heartbeat CPU 1 instructions: 310000003 cycles: 314303621 heartbeat IPC: 0.273822 cumulative IPC: 0.495469 (Simulation time: 52 hr 39 min 26 sec) 
 Total Blocks : 262144 Invalid Blocks : 0
Heartbeat CPU 0 instructions: 310000003 cycles: 314392214 heartbeat IPC: 0.273555 cumulative IPC: 0.495269 (Simulation time: 52 hr 39 min 41 sec) 
 Total Blocks : 262144 Invalid Blocks : 0
Heartbeat CPU 3 instructions: 310000003 cycles: 314723547 heartbeat IPC: 0.273738 cumulative IPC: 0.494536 (Simulation time: 52 hr 40 min 56 sec) 
 Total Blocks : 262144 Invalid Blocks : 0
Heartbeat CPU 2 instructions: 320000000 cycles: 331189795 heartbeat IPC: 0.537402 cumulative IPC: 0.502308 (Simulation time: 53 hr 51 min 19 sec) 
 Total Blocks : 262144 Invalid Blocks : 0
Heartbeat CPU 4 instructions: 320000002 cycles: 331262501 heartbeat IPC: 0.538137 cumulative IPC: 0.502154 (Simulation time: 53 hr 51 min 38 sec) 
 Total Blocks : 262144 Invalid Blocks : 0
Heartbeat CPU 5 instructions: 320000002 cycles: 331436869 heartbeat IPC: 0.542325 cumulative IPC: 0.501789 (Simulation time: 53 hr 52 min 40 sec) 
 Total Blocks : 262144 Invalid Blocks : 0
Heartbeat CPU 6 instructions: 320000000 cycles: 331691416 heartbeat IPC: 0.539893 cumulative IPC: 0.50126 (Simulation time: 53 hr 54 min 5 sec) 
 Total Blocks : 262144 Invalid Blocks : 0
Heartbeat CPU 7 instructions: 320000000 cycles: 332324186 heartbeat IPC: 0.541818 cumulative IPC: 0.499936 (Simulation time: 53 hr 57 min 24 sec) 
 Total Blocks : 262144 Invalid Blocks : 0
Heartbeat CPU 1 instructions: 320000000 cycles: 332563278 heartbeat IPC: 0.547655 cumulative IPC: 0.499435 (Simulation time: 53 hr 58 min 49 sec) 
 Total Blocks : 262144 Invalid Blocks : 0
Heartbeat CPU 0 instructions: 320000000 cycles: 332568423 heartbeat IPC: 0.55017 cumulative IPC: 0.499422 (Simulation time: 53 hr 58 min 51 sec) 
 Total Blocks : 262144 Invalid Blocks : 0
Heartbeat CPU 3 instructions: 320000000 cycles: 333129920 heartbeat IPC: 0.54329 cumulative IPC: 0.498263 (Simulation time: 54 hr 1 min 27 sec) 
 Total Blocks : 262144 Invalid Blocks : 0
Heartbeat CPU 2 instructions: 330000000 cycles: 353522286 heartbeat IPC: 0.447778 cumulative IPC: 0.497646 (Simulation time: 55 hr 16 min 3 sec) 
 Total Blocks : 262144 Invalid Blocks : 0
Heartbeat CPU 4 instructions: 330000000 cycles: 353689378 heartbeat IPC: 0.445893 cumulative IPC: 0.497327 (Simulation time: 55 hr 16 min 36 sec) 
 Total Blocks : 262144 Invalid Blocks : 0
Heartbeat CPU 5 instructions: 330000000 cycles: 353743853 heartbeat IPC: 0.44829 cumulative IPC: 0.497225 (Simulation time: 55 hr 16 min 50 sec) 
 Total Blocks : 262144 Invalid Blocks : 0
Heartbeat CPU 6 instructions: 330000000 cycles: 354178595 heartbeat IPC: 0.444698 cumulative IPC: 0.496403 (Simulation time: 55 hr 18 min 35 sec) 
 Total Blocks : 262144 Invalid Blocks : 0
Heartbeat CPU 7 instructions: 330000000 cycles: 354777442 heartbeat IPC: 0.44537 cumulative IPC: 0.495268 (Simulation time: 55 hr 21 min 22 sec) 
 Total Blocks : 262144 Invalid Blocks : 0
Heartbeat CPU 0 instructions: 330000000 cycles: 354778670 heartbeat IPC: 0.450243 cumulative IPC: 0.495261 (Simulation time: 55 hr 21 min 24 sec) 
 Total Blocks : 262144 Invalid Blocks : 0
Heartbeat CPU 1 instructions: 330000000 cycles: 355006139 heartbeat IPC: 0.445576 cumulative IPC: 0.494834 (Simulation time: 55 hr 22 min 14 sec) 
 Total Blocks : 262144 Invalid Blocks : 0
Heartbeat CPU 3 instructions: 330000000 cycles: 355490665 heartbeat IPC: 0.447212 cumulative IPC: 0.493925 (Simulation time: 55 hr 24 min 16 sec) 
 Total Blocks : 262144 Invalid Blocks : 0
Heartbeat CPU 4 instructions: 340000002 cycles: 404505217 heartbeat IPC: 0.196789 cumulative IPC: 0.448411 (Simulation time: 57 hr 21 min 44 sec) 
 Total Blocks : 262144 Invalid Blocks : 0
Heartbeat CPU 2 instructions: 340000002 cycles: 404797618 heartbeat IPC: 0.195026 cumulative IPC: 0.447993 (Simulation time: 57 hr 22 min 19 sec) 
 Total Blocks : 262144 Invalid Blocks : 0
Heartbeat CPU 5 instructions: 340000002 cycles: 405133177 heartbeat IPC: 0.194593 cumulative IPC: 0.447512 (Simulation time: 57 hr 23 min 20 sec) 
 Total Blocks : 262144 Invalid Blocks : 0
Heartbeat CPU 6 instructions: 340000002 cycles: 406311755 heartbeat IPC: 0.191817 cumulative IPC: 0.445836 (Simulation time: 57 hr 28 min 5 sec) 
 Total Blocks : 262144 Invalid Blocks : 0
Heartbeat CPU 0 instructions: 340000002 cycles: 406672970 heartbeat IPC: 0.192699 cumulative IPC: 0.445317 (Simulation time: 57 hr 29 min 47 sec) 
 Total Blocks : 262144 Invalid Blocks : 0
Heartbeat CPU 7 instructions: 340000002 cycles: 406823946 heartbeat IPC: 0.192136 cumulative IPC: 0.445108 (Simulation time: 57 hr 30 min 22 sec) 
 Total Blocks : 262144 Invalid Blocks : 0
Heartbeat CPU 1 instructions: 340000002 cycles: 407061064 heartbeat IPC: 0.192105 cumulative IPC: 0.44477 (Simulation time: 57 hr 31 min 31 sec) 
 Total Blocks : 262144 Invalid Blocks : 0
Heartbeat CPU 3 instructions: 340000002 cycles: 408171439 heartbeat IPC: 0.189823 cumulative IPC: 0.443208 (Simulation time: 57 hr 38 min 20 sec) 
 Total Blocks : 262144 Invalid Blocks : 0
Heartbeat CPU 4 instructions: 350000000 cycles: 413148225 heartbeat IPC: 1.157 cumulative IPC: 0.467499 (Simulation time: 58 hr 11 min 0 sec) 
 Total Blocks : 262144 Invalid Blocks : 0
Heartbeat CPU 2 instructions: 350000000 cycles: 413233670 heartbeat IPC: 1.18539 cumulative IPC: 0.467375 (Simulation time: 58 hr 11 min 31 sec) 
 Total Blocks : 262144 Invalid Blocks : 0
Heartbeat CPU 5 instructions: 350000000 cycles: 413349464 heartbeat IPC: 1.21709 cumulative IPC: 0.467207 (Simulation time: 58 hr 12 min 23 sec) 
 Total Blocks : 262144 Invalid Blocks : 0
Heartbeat CPU 6 instructions: 350000000 cycles: 414056643 heartbeat IPC: 1.29117 cumulative IPC: 0.466183 (Simulation time: 58 hr 16 min 48 sec) 
 Total Blocks : 262144 Invalid Blocks : 0
Heartbeat CPU 7 instructions: 350000000 cycles: 414321158 heartbeat IPC: 1.33383 cumulative IPC: 0.465798 (Simulation time: 58 hr 18 min 38 sec) 
 Total Blocks : 262144 Invalid Blocks : 0
Heartbeat CPU 0 instructions: 350000000 cycles: 414337427 heartbeat IPC: 1.30472 cumulative IPC: 0.46577 (Simulation time: 58 hr 18 min 44 sec) 
 Total Blocks : 262144 Invalid Blocks : 0
Heartbeat CPU 1 instructions: 350000000 cycles: 414499858 heartbeat IPC: 1.3443 cumulative IPC: 0.465537 (Simulation time: 58 hr 20 min 2 sec) 
 Total Blocks : 262144 Invalid Blocks : 0
Heartbeat CPU 3 instructions: 350000000 cycles: 415464172 heartbeat IPC: 1.37123 cumulative IPC: 0.46415 (Simulation time: 58 hr 26 min 22 sec) 
 Total Blocks : 262144 Invalid Blocks : 0
Heartbeat CPU 4 instructions: 360000003 cycles: 429404325 heartbeat IPC: 0.615154 cumulative IPC: 0.474619 (Simulation time: 59 hr 12 min 19 sec) 
 Total Blocks : 262144 Invalid Blocks : 0
Heartbeat CPU 2 instructions: 360000003 cycles: 429532777 heartbeat IPC: 0.613531 cumulative IPC: 0.474439 (Simulation time: 59 hr 13 min 13 sec) 
 Total Blocks : 262144 Invalid Blocks : 0
Heartbeat CPU 5 instructions: 360000003 cycles: 429698623 heartbeat IPC: 0.611652 cumulative IPC: 0.474206 (Simulation time: 59 hr 14 min 5 sec) 
 Total Blocks : 262144 Invalid Blocks : 0
Heartbeat CPU 6 instructions: 360000003 cycles: 430707877 heartbeat IPC: 0.600556 cumulative IPC: 0.472795 (Simulation time: 59 hr 20 min 10 sec) 
 Total Blocks : 262144 Invalid Blocks : 0
Heartbeat CPU 0 instructions: 360000003 cycles: 430943223 heartbeat IPC: 0.6022 cumulative IPC: 0.47246 (Simulation time: 59 hr 21 min 42 sec) 
 Total Blocks : 262144 Invalid Blocks : 0
Heartbeat CPU 7 instructions: 360000003 cycles: 431044216 heartbeat IPC: 0.597977 cumulative IPC: 0.472324 (Simulation time: 59 hr 22 min 31 sec) 
 Total Blocks : 262144 Invalid Blocks : 0
Heartbeat CPU 1 instructions: 360000003 cycles: 431406852 heartbeat IPC: 0.591471 cumulative IPC: 0.471816 (Simulation time: 59 hr 24 min 45 sec) 
 Total Blocks : 262144 Invalid Blocks : 0
Heartbeat CPU 3 instructions: 360000003 cycles: 432282683 heartbeat IPC: 0.594583 cumulative IPC: 0.470602 (Simulation time: 59 hr 30 min 11 sec) 
 Total Blocks : 262144 Invalid Blocks : 0
Heartbeat CPU 4 instructions: 370000001 cycles: 436648586 heartbeat IPC: 1.3804 cumulative IPC: 0.493674 (Simulation time: 59 hr 57 min 55 sec) 
 Total Blocks : 262144 Invalid Blocks : 0
Heartbeat CPU 2 instructions: 370000001 cycles: 436772427 heartbeat IPC: 1.38128 cumulative IPC: 0.493498 (Simulation time: 59 hr 58 min 36 sec) 
 Total Blocks : 262144 Invalid Blocks : 0
Heartbeat CPU 5 instructions: 370000001 cycles: 436912525 heartbeat IPC: 1.38621 cumulative IPC: 0.493297 (Simulation time: 59 hr 59 min 36 sec) 
 Total Blocks : 262144 Invalid Blocks : 0
Heartbeat CPU 6 instructions: 370000001 cycles: 438001073 heartbeat IPC: 1.37114 cumulative IPC: 0.491747 (Simulation time: 60 hr 5 min 29 sec) 
 Total Blocks : 262144 Invalid Blocks : 0
Heartbeat CPU 7 instructions: 370000001 cycles: 438227814 heartbeat IPC: 1.39206 cumulative IPC: 0.491423 (Simulation time: 60 hr 6 min 36 sec) 
 Total Blocks : 262144 Invalid Blocks : 0
Heartbeat CPU 0 instructions: 370000001 cycles: 438228862 heartbeat IPC: 1.37256 cumulative IPC: 0.491417 (Simulation time: 60 hr 6 min 48 sec) 
 Total Blocks : 262144 Invalid Blocks : 0
Heartbeat CPU 1 instructions: 370000001 cycles: 438697435 heartbeat IPC: 1.37163 cumulative IPC: 0.490754 (Simulation time: 60 hr 9 min 4 sec) 
 Total Blocks : 262144 Invalid Blocks : 0
Heartbeat CPU 3 instructions: 370000001 cycles: 439821711 heartbeat IPC: 1.32643 cumulative IPC: 0.489168 (Simulation time: 60 hr 12 min 46 sec) 
 Total Blocks : 262144 Invalid Blocks : 0
Heartbeat CPU 4 instructions: 380000002 cycles: 451672043 heartbeat IPC: 0.665626 cumulative IPC: 0.500862 (Simulation time: 60 hr 51 min 21 sec) 
 Total Blocks : 262144 Invalid Blocks : 0
Heartbeat CPU 2 instructions: 380000002 cycles: 451803752 heartbeat IPC: 0.665277 cumulative IPC: 0.50068 (Simulation time: 60 hr 52 min 15 sec) 
 Total Blocks : 262144 Invalid Blocks : 0
Heartbeat CPU 5 instructions: 380000002 cycles: 451968081 heartbeat IPC: 0.664207 cumulative IPC: 0.500451 (Simulation time: 60 hr 53 min 4 sec) 
 Total Blocks : 262144 Invalid Blocks : 0
Heartbeat CPU 6 instructions: 380000002 cycles: 453383825 heartbeat IPC: 0.650079 cumulative IPC: 0.498492 (Simulation time: 61 hr 1 min 15 sec) 
 Total Blocks : 262144 Invalid Blocks : 0
Heartbeat CPU 7 instructions: 380000002 cycles: 453516060 heartbeat IPC: 0.654097 cumulative IPC: 0.498308 (Simulation time: 61 hr 1 min 56 sec) 
 Total Blocks : 262144 Invalid Blocks : 0
Heartbeat CPU 0 instructions: 380000002 cycles: 453569718 heartbeat IPC: 0.651854 cumulative IPC: 0.49823 (Simulation time: 61 hr 2 min 12 sec) 
 Total Blocks : 262144 Invalid Blocks : 0
Heartbeat CPU 1 instructions: 380000002 cycles: 454194634 heartbeat IPC: 0.645278 cumulative IPC: 0.497371 (Simulation time: 61 hr 5 min 49 sec) 
 Total Blocks : 262144 Invalid Blocks : 0
Heartbeat CPU 3 instructions: 380000002 cycles: 454833925 heartbeat IPC: 0.666124 cumulative IPC: 0.496496 (Simulation time: 61 hr 9 min 26 sec) 
 Total Blocks : 262144 Invalid Blocks : 0
Heartbeat CPU 4 instructions: 390000001 cycles: 463644568 heartbeat IPC: 0.835246 cumulative IPC: 0.511643 (Simulation time: 61 hr 42 min 35 sec) 
 Total Blocks : 262144 Invalid Blocks : 0
Heartbeat CPU 2 instructions: 390000001 cycles: 463700404 heartbeat IPC: 0.840573 cumulative IPC: 0.511567 (Simulation time: 61 hr 42 min 42 sec) 
 Total Blocks : 262144 Invalid Blocks : 0
Heartbeat CPU 5 instructions: 390000001 cycles: 464144080 heartbeat IPC: 0.821288 cumulative IPC: 0.510957 (Simulation time: 61 hr 44 min 1 sec) 
 Total Blocks : 262144 Invalid Blocks : 0
Heartbeat CPU 6 instructions: 390000001 cycles: 467663865 heartbeat IPC: 0.700278 cumulative IPC: 0.506168 (Simulation time: 61 hr 53 min 32 sec) 
 Total Blocks : 262144 Invalid Blocks : 0
Heartbeat CPU 7 instructions: 390000001 cycles: 467669562 heartbeat IPC: 0.706539 cumulative IPC: 0.506159 (Simulation time: 61 hr 53 min 34 sec) 
 Total Blocks : 262144 Invalid Blocks : 0
Heartbeat CPU 0 instructions: 390000001 cycles: 468139848 heartbeat IPC: 0.686336 cumulative IPC: 0.505522 (Simulation time: 61 hr 55 min 21 sec) 
 Total Blocks : 262144 Invalid Blocks : 0
Heartbeat CPU 1 instructions: 390000001 cycles: 469373953 heartbeat IPC: 0.658791 cumulative IPC: 0.503869 (Simulation time: 61 hr 59 min 52 sec) 
 Total Blocks : 262144 Invalid Blocks : 0
Heartbeat CPU 3 instructions: 390000001 cycles: 469870116 heartbeat IPC: 0.665062 cumulative IPC: 0.503209 (Simulation time: 62 hr 2 min 6 sec) 
 Total Blocks : 262144 Invalid Blocks : 0
Heartbeat CPU 4 instructions: 400000002 cycles: 473507358 heartbeat IPC: 1.01391 cumulative IPC: 0.524638 (Simulation time: 62 hr 22 min 49 sec) 
 Total Blocks : 262144 Invalid Blocks : 0
Finished CPU 4 instructions: 200000002 cycles: 381213515 cumulative IPC: 0.52464 (Simulation time: 62 hr 22 min 50 sec) 
Heartbeat CPU 2 instructions: 400000002 cycles: 473567090 heartbeat IPC: 1.01351 cumulative IPC: 0.524557 (Simulation time: 62 hr 23 min 8 sec) 
 Total Blocks : 262144 Invalid Blocks : 0
Finished CPU 2 instructions: 200000000 cycles: 381273054 cumulative IPC: 0.524558 (Simulation time: 62 hr 23 min 9 sec) 
Heartbeat CPU 5 instructions: 400000002 cycles: 473899697 heartbeat IPC: 1.02505 cumulative IPC: 0.524099 (Simulation time: 62 hr 25 min 3 sec) 
 Total Blocks : 262144 Invalid Blocks : 0
Finished CPU 5 instructions: 200000000 cycles: 381605661 cumulative IPC: 0.524101 (Simulation time: 62 hr 25 min 4 sec) 
Heartbeat CPU 7 instructions: 400000002 cycles: 475646495 heartbeat IPC: 1.25361 cumulative IPC: 0.521712 (Simulation time: 62 hr 35 min 15 sec) 
 Total Blocks : 262144 Invalid Blocks : 0
Finished CPU 7 instructions: 200000001 cycles: 383352204 cumulative IPC: 0.521713 (Simulation time: 62 hr 35 min 16 sec) 
Heartbeat CPU 6 instructions: 400000002 cycles: 475710705 heartbeat IPC: 1.24272 cumulative IPC: 0.521627 (Simulation time: 62 hr 35 min 34 sec) 
 Total Blocks : 262144 Invalid Blocks : 0
Finished CPU 6 instructions: 200000002 cycles: 383416069 cumulative IPC: 0.521627 (Simulation time: 62 hr 35 min 35 sec) 
Heartbeat CPU 0 instructions: 400000002 cycles: 476023496 heartbeat IPC: 1.26845 cumulative IPC: 0.521196 (Simulation time: 62 hr 37 min 32 sec) 
 Total Blocks : 262144 Invalid Blocks : 0
Finished CPU 0 instructions: 200000000 cycles: 383730051 cumulative IPC: 0.5212 (Simulation time: 62 hr 37 min 34 sec) 
Heartbeat CPU 1 instructions: 400000002 cycles: 476717003 heartbeat IPC: 1.36183 cumulative IPC: 0.520257 (Simulation time: 62 hr 41 min 51 sec) 
 Total Blocks : 262144 Invalid Blocks : 0
Finished CPU 1 instructions: 200000001 cycles: 384423233 cumulative IPC: 0.52026 (Simulation time: 62 hr 41 min 52 sec) 
Heartbeat CPU 3 instructions: 400000002 cycles: 477210064 heartbeat IPC: 1.36241 cumulative IPC: 0.519593 (Simulation time: 62 hr 44 min 11 sec) 
 Total Blocks : 262144 Invalid Blocks : 0
Finished CPU 3 instructions: 200000002 cycles: 384915873 cumulative IPC: 0.519594 (Simulation time: 62 hr 44 min 12 sec) 

CPU 0 Branch Prediction Accuracy: 96.1304% MPKI: 1.69461 Average ROB Occupancy at Mispredict: 241.56

CPU 1 Branch Prediction Accuracy: 96.1234% MPKI: 1.69908 Average ROB Occupancy at Mispredict: 241.091

CPU 2 Branch Prediction Accuracy: 96.1325% MPKI: 1.69209 Average ROB Occupancy at Mispredict: 240.824

CPU 3 Branch Prediction Accuracy: 96.1209% MPKI: 1.70133 Average ROB Occupancy at Mispredict: 240.748

CPU 4 Branch Prediction Accuracy: 96.1304% MPKI: 1.69334 Average ROB Occupancy at Mispredict: 240.744

CPU 5 Branch Prediction Accuracy: 96.1488% MPKI: 1.68289 Average ROB Occupancy at Mispredict: 241.566

CPU 6 Branch Prediction Accuracy: 96.1335% MPKI: 1.69269 Average ROB Occupancy at Mispredict: 241.509

CPU 7 Branch Prediction Accuracy: 96.1345% MPKI: 1.69207 Average ROB Occupancy at Mispredict: 241.671

ChampSim completed all CPUs

Total Simulation Statistics (not including warmup)

CPU 0 cumulative IPC: 0.523529 instructions: 201514649 cycles: 384915873
ITLB TOTAL     ACCESS: 30092522  HIT: 30092342  MISS:   180  HIT %: 99.9994  MISS %: 0.000598155  AVERAGE MISS PENALTY: 126.944
ITLB LOAD      ACCESS: 30092522  HIT: 30092342  MISS:   180  HIT %: 99.9994  MISS %: 0.000598155  AVERAGE MISS PENALTY: 126.944
ITLB RFO       ACCESS:     0  HIT:     0  MISS:     0  HIT %:     0  MISS %:     0  AVERAGE MISS PENALTY: 0
ITLB PREFETCH  ACCESS:     0  HIT:     0  MISS:     0  HIT %:     0  MISS %:     0  AVERAGE MISS PENALTY: 0
ITLB WRITEBACK ACCESS:     0  HIT:     0  MISS:     0  HIT %:     0  MISS %:     0  AVERAGE MISS PENALTY: 0

DTLB TOTAL     ACCESS: 52457857  HIT: 52293469  MISS: 164388  HIT %: 99.6866  MISS %: 0.313372  AVERAGE MISS PENALTY: 37.8841
DTLB LOAD      ACCESS: 46206769  HIT: 46066806  MISS: 139963  HIT %: 99.6971  MISS %: 0.302906  AVERAGE MISS PENALTY: 39.1949
DTLB RFO       ACCESS: 6251088  HIT: 6226663  MISS: 24425  HIT %: 99.6093  MISS %: 0.390732  AVERAGE MISS PENALTY: 30.3729
DTLB PREFETCH  ACCESS:     0  HIT:     0  MISS:     0  HIT %:     0  MISS %:     0  AVERAGE MISS PENALTY: 0
DTLB WRITEBACK ACCESS:     0  HIT:     0  MISS:     0  HIT %:     0  MISS %:     0  AVERAGE MISS PENALTY: 0

STLB TOTAL     ACCESS: 164568  HIT: 134121  MISS: 30447  HIT %: 81.4988  MISS %: 18.5012  AVERAGE MISS PENALTY: 100
STLB LOAD      ACCESS: 140143  HIT: 114320  MISS: 25823  HIT %: 81.5738  MISS %: 18.4262  AVERAGE MISS PENALTY: 100
STLB RFO       ACCESS: 24425  HIT: 19801  MISS:  4624  HIT %: 81.0686  MISS %: 18.9314  AVERAGE MISS PENALTY: 100
STLB PREFETCH  ACCESS:     0  HIT:     0  MISS:     0  HIT %:     0  MISS %:     0  AVERAGE MISS PENALTY: 0
STLB WRITEBACK ACCESS:     0  HIT:     0  MISS:     0  HIT %:     0  MISS %:     0  AVERAGE MISS PENALTY: 0

L1D TOTAL     ACCESS: 62228721  HIT: 57821693  MISS: 4407028  HIT %: 92.918  MISS %: 7.08198  AVERAGE MISS PENALTY: 3.73445e+07
L1D LOAD      ACCESS: 42010767  HIT: 40921946  MISS: 1088821  HIT %: 97.4082  MISS %: 2.59177  AVERAGE MISS PENALTY: 1.50978e+08
L1D RFO       ACCESS: 8134827  HIT: 7542782  MISS: 592045  HIT %: 92.7221  MISS %: 7.27791  AVERAGE MISS PENALTY: 320211
L1D PREFETCH  ACCESS: 12083127  HIT: 9356965  MISS: 2726162  HIT %: 77.4383  MISS %: 22.5617  AVERAGE MISS PENALTY: 227.551
L1D WRITEBACK ACCESS:     0  HIT:     0  MISS:     0  HIT %:     0  MISS %:     0  AVERAGE MISS PENALTY: 0

L1I TOTAL     ACCESS: 41913152  HIT: 41906216  MISS:  6936  HIT %: 99.9835  MISS %: 0.0165485  AVERAGE MISS PENALTY: 708.832
L1I LOAD      ACCESS: 41913152  HIT: 41906216  MISS:  6936  HIT %: 99.9835  MISS %: 0.0165485  AVERAGE MISS PENALTY: 708.832
L1I RFO       ACCESS:     0  HIT:     0  MISS:     0  HIT %:     0  MISS %:     0  AVERAGE MISS PENALTY: 0
L1I PREFETCH  ACCESS:     0  HIT:     0  MISS:     0  HIT %:     0  MISS %:     0  AVERAGE MISS PENALTY: 0
L1I WRITEBACK ACCESS:     0  HIT:     0  MISS:     0  HIT %:     0  MISS %:     0  AVERAGE MISS PENALTY: 0

L2C TOTAL     ACCESS: 9290359  HIT: 5800803  MISS: 3489556  HIT %: 62.439  MISS %: 37.561  AVERAGE MISS PENALTY: 4.33095e+07
L2C LOAD      ACCESS: 1071749  HIT: 307462  MISS: 764287  HIT %: 28.6879  MISS %: 71.3121  AVERAGE MISS PENALTY: 1.97722e+08
L2C RFO       ACCESS: 591371  HIT: 153282  MISS: 438089  HIT %: 25.9198  MISS %: 74.0802  AVERAGE MISS PENALTY: 29566.6
L2C PREFETCH  ACCESS: 6181138  HIT: 3921317  MISS: 2259821  HIT %: 63.44  MISS %: 36.56  AVERAGE MISS PENALTY: 636.312
L2C WRITEBACK ACCESS: 1446101  HIT: 1418742  MISS: 27359  HIT %: 98.1081  MISS %: 1.89191  AVERAGE MISS PENALTY: 0


LLC0 TOTAL     ACCESS: 579258  HIT: 207101  MISS: 372157  HIT %: 35.7528  MISS %: 64.2472  AVERAGE MISS PENALTY: 844.773
LLC0 LOAD      ACCESS: 65302  HIT: 13629  MISS: 51673  HIT %: 20.8707  MISS %: 79.1293  AVERAGE MISS PENALTY: 848.822
LLC0 RFO       ACCESS: 54848  HIT:  6482  MISS: 48366  HIT %: 11.8181  MISS %: 88.1819  AVERAGE MISS PENALTY: 1116.89
LLC0 PREFETCH  ACCESS: 310966  HIT: 57159  MISS: 253807  HIT %: 18.3811  MISS %: 81.6189  AVERAGE MISS PENALTY: 853.04
LLC0 WRITEBACK ACCESS: 148142  HIT: 129831  MISS: 18311  HIT %: 87.6396  MISS %: 12.3604  AVERAGE MISS PENALTY: 0

LLC1 TOTAL     ACCESS: 580045  HIT: 207429  MISS: 372616  HIT %: 35.7608  MISS %: 64.2392  AVERAGE MISS PENALTY: 850.672
LLC1 LOAD      ACCESS: 32607  HIT:  7920  MISS: 24687  HIT %: 24.2893  MISS %: 75.7107  AVERAGE MISS PENALTY: 962.521
LLC1 RFO       ACCESS: 54849  HIT:  6591  MISS: 48258  HIT %: 12.0166  MISS %: 87.9834  AVERAGE MISS PENALTY: 1128.22
LLC1 PREFETCH  ACCESS: 344428  HIT: 62690  MISS: 281738  HIT %: 18.2012  MISS %: 81.7988  AVERAGE MISS PENALTY: 847.477
LLC1 WRITEBACK ACCESS: 148161  HIT: 130228  MISS: 17933  HIT %: 87.8963  MISS %: 12.1037  AVERAGE MISS PENALTY: 0

LLC2 TOTAL     ACCESS: 581246  HIT: 208532  MISS: 372714  HIT %: 35.8767  MISS %: 64.1233  AVERAGE MISS PENALTY: 867.3
LLC2 LOAD      ACCESS: 26620  HIT:  6930  MISS: 19690  HIT %: 26.0331  MISS %: 73.9669  AVERAGE MISS PENALTY: 964.934
LLC2 RFO       ACCESS: 54891  HIT:  6466  MISS: 48425  HIT %: 11.7797  MISS %: 88.2203  AVERAGE MISS PENALTY: 1087.78
LLC2 PREFETCH  ACCESS: 351520  HIT: 63909  MISS: 287611  HIT %: 18.1808  MISS %: 81.8192  AVERAGE MISS PENALTY: 874.722
LLC2 WRITEBACK ACCESS: 148215  HIT: 131227  MISS: 16988  HIT %: 88.5383  MISS %: 11.4617  AVERAGE MISS PENALTY: 0

LLC3 TOTAL     ACCESS: 580388  HIT: 207940  MISS: 372448  HIT %: 35.8278  MISS %: 64.1722  AVERAGE MISS PENALTY: 866.216
LLC3 LOAD      ACCESS: 24676  HIT:  6424  MISS: 18252  HIT %: 26.0334  MISS %: 73.9666  AVERAGE MISS PENALTY: 983.706
LLC3 RFO       ACCESS: 54824  HIT:  6469  MISS: 48355  HIT %: 11.7996  MISS %: 88.2004  AVERAGE MISS PENALTY: 1093.41
LLC3 PREFETCH  ACCESS: 352638  HIT: 63687  MISS: 288951  HIT %: 18.0602  MISS %: 81.9398  AVERAGE MISS PENALTY: 871.408
LLC3 WRITEBACK ACCESS: 148250  HIT: 131360  MISS: 16890  HIT %: 88.6071  MISS %: 11.3929  AVERAGE MISS PENALTY: 0

LLC4 TOTAL     ACCESS: 581181  HIT: 207680  MISS: 373501  HIT %: 35.7341  MISS %: 64.2659  AVERAGE MISS PENALTY: 872.019
LLC4 LOAD      ACCESS: 24055  HIT:  6428  MISS: 17627  HIT %: 26.7221  MISS %: 73.2779  AVERAGE MISS PENALTY: 1021.97
LLC4 RFO       ACCESS: 54750  HIT:  6450  MISS: 48300  HIT %: 11.7808  MISS %: 88.2192  AVERAGE MISS PENALTY: 1151
LLC4 PREFETCH  ACCESS: 354169  HIT: 63837  MISS: 290332  HIT %: 18.0244  MISS %: 81.9756  AVERAGE MISS PENALTY: 868.289
LLC4 WRITEBACK ACCESS: 148207  HIT: 130965  MISS: 17242  HIT %: 88.3663  MISS %: 11.6337  AVERAGE MISS PENALTY: 0

LLC5 TOTAL     ACCESS: 581598  HIT: 208218  MISS: 373380  HIT %: 35.801  MISS %: 64.199  AVERAGE MISS PENALTY: 869.197
LLC5 LOAD      ACCESS: 24193  HIT:  6412  MISS: 17781  HIT %: 26.5035  MISS %: 73.4965  AVERAGE MISS PENALTY: 1031.17
LLC5 RFO       ACCESS: 54652  HIT:  6454  MISS: 48198  HIT %: 11.8093  MISS %: 88.1907  AVERAGE MISS PENALTY: 1146.67
LLC5 PREFETCH  ACCESS: 354646  HIT: 64076  MISS: 290570  HIT %: 18.0676  MISS %: 81.9324  AVERAGE MISS PENALTY: 863.608
LLC5 WRITEBACK ACCESS: 148107  HIT: 131276  MISS: 16831  HIT %: 88.6359  MISS %: 11.3641  AVERAGE MISS PENALTY: 0

LLC6 TOTAL     ACCESS: 581857  HIT: 208389  MISS: 373468  HIT %: 35.8145  MISS %: 64.1855  AVERAGE MISS PENALTY: 877.955
LLC6 LOAD      ACCESS: 24316  HIT:  6608  MISS: 17708  HIT %: 27.1755  MISS %: 72.8245  AVERAGE MISS PENALTY: 1000.1
LLC6 RFO       ACCESS: 54647  HIT:  6343  MISS: 48304  HIT %: 11.6072  MISS %: 88.3928  AVERAGE MISS PENALTY: 1109.29
LLC6 PREFETCH  ACCESS: 354709  HIT: 64438  MISS: 290271  HIT %: 18.1664  MISS %: 81.8336  AVERAGE MISS PENALTY: 883.984
LLC6 WRITEBACK ACCESS: 148185  HIT: 131000  MISS: 17185  HIT %: 88.403  MISS %: 11.597  AVERAGE MISS PENALTY: 0

LLC7 TOTAL     ACCESS: 581984  HIT: 207568  MISS: 374416  HIT %: 35.6656  MISS %: 64.3344  AVERAGE MISS PENALTY: 876.907
LLC7 LOAD      ACCESS: 24326  HIT:  6346  MISS: 17980  HIT %: 26.0873  MISS %: 73.9127  AVERAGE MISS PENALTY: 1007.47
LLC7 RFO       ACCESS: 54584  HIT:  6298  MISS: 48286  HIT %: 11.5382  MISS %: 88.4618  AVERAGE MISS PENALTY: 1112.05
LLC7 PREFETCH  ACCESS: 354951  HIT: 64272  MISS: 290679  HIT %: 18.1073  MISS %: 81.8927  AVERAGE MISS PENALTY: 882.476
LLC7 WRITEBACK ACCESS: 148123  HIT: 130652  MISS: 17471  HIT %: 88.2051  MISS %: 11.7949  AVERAGE MISS PENALTY: 0

Total Rob stall cycles : 	330064163
Total Load Rob Stall cycles : 	255217646
Average Rob Stall cycles : 	 18
Average Load Rob Stall cycles : 	 77

CPU 1 cumulative IPC: 0.52105 instructions: 200560544 cycles: 384915873
ITLB TOTAL     ACCESS: 29942286  HIT: 29942106  MISS:   180  HIT %: 99.9994  MISS %: 0.000601157  AVERAGE MISS PENALTY: 126.394
ITLB LOAD      ACCESS: 29942286  HIT: 29942106  MISS:   180  HIT %: 99.9994  MISS %: 0.000601157  AVERAGE MISS PENALTY: 126.394
ITLB RFO       ACCESS:     0  HIT:     0  MISS:     0  HIT %:     0  MISS %:     0  AVERAGE MISS PENALTY: 0
ITLB PREFETCH  ACCESS:     0  HIT:     0  MISS:     0  HIT %:     0  MISS %:     0  AVERAGE MISS PENALTY: 0
ITLB WRITEBACK ACCESS:     0  HIT:     0  MISS:     0  HIT %:     0  MISS %:     0  AVERAGE MISS PENALTY: 0

DTLB TOTAL     ACCESS: 52242585  HIT: 52078222  MISS: 164363  HIT %: 99.6854  MISS %: 0.314615  AVERAGE MISS PENALTY: 37.8432
DTLB LOAD      ACCESS: 46016545  HIT: 45876670  MISS: 139875  HIT %: 99.696  MISS %: 0.303967  AVERAGE MISS PENALTY: 39.1396
DTLB RFO       ACCESS: 6226040  HIT: 6201552  MISS: 24488  HIT %: 99.6067  MISS %: 0.393316  AVERAGE MISS PENALTY: 30.4378
DTLB PREFETCH  ACCESS:     0  HIT:     0  MISS:     0  HIT %:     0  MISS %:     0  AVERAGE MISS PENALTY: 0
DTLB WRITEBACK ACCESS:     0  HIT:     0  MISS:     0  HIT %:     0  MISS %:     0  AVERAGE MISS PENALTY: 0

STLB TOTAL     ACCESS: 164543  HIT: 134109  MISS: 30434  HIT %: 81.5039  MISS %: 18.4961  AVERAGE MISS PENALTY: 100
STLB LOAD      ACCESS: 140055  HIT: 114246  MISS: 25809  HIT %: 81.5722  MISS %: 18.4278  AVERAGE MISS PENALTY: 100
STLB RFO       ACCESS: 24488  HIT: 19863  MISS:  4625  HIT %: 81.1132  MISS %: 18.8868  AVERAGE MISS PENALTY: 100
STLB PREFETCH  ACCESS:     0  HIT:     0  MISS:     0  HIT %:     0  MISS %:     0  AVERAGE MISS PENALTY: 0
STLB WRITEBACK ACCESS:     0  HIT:     0  MISS:     0  HIT %:     0  MISS %:     0  AVERAGE MISS PENALTY: 0

L1D TOTAL     ACCESS: 61954458  HIT: 57550256  MISS: 4404202  HIT %: 92.8912  MISS %: 7.10877  AVERAGE MISS PENALTY: 3.72555e+07
L1D LOAD      ACCESS: 41798790  HIT: 40711831  MISS: 1086959  HIT %: 97.3995  MISS %: 2.60046  AVERAGE MISS PENALTY: 1.50774e+08
L1D RFO       ACCESS: 8099085  HIT: 7507024  MISS: 592061  HIT %: 92.6898  MISS %: 7.31022  AVERAGE MISS PENALTY: 329958
L1D PREFETCH  ACCESS: 12056583  HIT: 9331401  MISS: 2725182  HIT %: 77.3967  MISS %: 22.6033  AVERAGE MISS PENALTY: 229.647
L1D WRITEBACK ACCESS:     0  HIT:     0  MISS:     0  HIT %:     0  MISS %:     0  AVERAGE MISS PENALTY: 0

L1I TOTAL     ACCESS: 41697794  HIT: 41690853  MISS:  6941  HIT %: 99.9834  MISS %: 0.016646  AVERAGE MISS PENALTY: 693.609
L1I LOAD      ACCESS: 41697794  HIT: 41690853  MISS:  6941  HIT %: 99.9834  MISS %: 0.016646  AVERAGE MISS PENALTY: 693.609
L1I RFO       ACCESS:     0  HIT:     0  MISS:     0  HIT %:     0  MISS %:     0  AVERAGE MISS PENALTY: 0
L1I PREFETCH  ACCESS:     0  HIT:     0  MISS:     0  HIT %:     0  MISS %:     0  AVERAGE MISS PENALTY: 0
L1I WRITEBACK ACCESS:     0  HIT:     0  MISS:     0  HIT %:     0  MISS %:     0  AVERAGE MISS PENALTY: 0

L2C TOTAL     ACCESS: 9285767  HIT: 5789322  MISS: 3496445  HIT %: 62.3462  MISS %: 37.6538  AVERAGE MISS PENALTY: 4.30166e+07
L2C LOAD      ACCESS: 1069981  HIT: 308649  MISS: 761332  HIT %: 28.8462  MISS %: 71.1538  AVERAGE MISS PENALTY: 1.97539e+08
L2C RFO       ACCESS: 591360  HIT: 152547  MISS: 438813  HIT %: 25.796  MISS %: 74.204  AVERAGE MISS PENALTY: 24095.6
L2C PREFETCH  ACCESS: 6180251  HIT: 3924044  MISS: 2256207  HIT %: 63.4933  MISS %: 36.5067  AVERAGE MISS PENALTY: 641.504
L2C WRITEBACK ACCESS: 1444175  HIT: 1404082  MISS: 40093  HIT %: 97.2238  MISS %: 2.77619  AVERAGE MISS PENALTY: 0


LLC0 TOTAL     ACCESS: 578016  HIT: 204057  MISS: 373959  HIT %: 35.303  MISS %: 64.697  AVERAGE MISS PENALTY: 843.086
LLC0 LOAD      ACCESS: 65020  HIT: 13458  MISS: 51562  HIT %: 20.6982  MISS %: 79.3018  AVERAGE MISS PENALTY: 859.928
LLC0 RFO       ACCESS: 54885  HIT:  6072  MISS: 48813  HIT %: 11.0631  MISS %: 88.9369  AVERAGE MISS PENALTY: 1061.72
LLC0 PREFETCH  ACCESS: 310153  HIT: 56194  MISS: 253959  HIT %: 18.1182  MISS %: 81.8818  AVERAGE MISS PENALTY: 862.793
LLC0 WRITEBACK ACCESS: 147958  HIT: 128333  MISS: 19625  HIT %: 86.7361  MISS %: 13.2639  AVERAGE MISS PENALTY: 0

LLC1 TOTAL     ACCESS: 578846  HIT: 204614  MISS: 374232  HIT %: 35.3486  MISS %: 64.6514  AVERAGE MISS PENALTY: 843.518
LLC1 LOAD      ACCESS: 32402  HIT:  7814  MISS: 24588  HIT %: 24.1158  MISS %: 75.8842  AVERAGE MISS PENALTY: 985.993
LLC1 RFO       ACCESS: 54850  HIT:  6092  MISS: 48758  HIT %: 11.1067  MISS %: 88.8933  AVERAGE MISS PENALTY: 1060.88
LLC1 PREFETCH  ACCESS: 343657  HIT: 61826  MISS: 281831  HIT %: 17.9906  MISS %: 82.0094  AVERAGE MISS PENALTY: 850.514
LLC1 WRITEBACK ACCESS: 147937  HIT: 128882  MISS: 19055  HIT %: 87.1195  MISS %: 12.8805  AVERAGE MISS PENALTY: 0

LLC2 TOTAL     ACCESS: 580126  HIT: 205525  MISS: 374601  HIT %: 35.4276  MISS %: 64.5724  AVERAGE MISS PENALTY: 862.613
LLC2 LOAD      ACCESS: 26213  HIT:  6750  MISS: 19463  HIT %: 25.7506  MISS %: 74.2494  AVERAGE MISS PENALTY: 977.066
LLC2 RFO       ACCESS: 54935  HIT:  6088  MISS: 48847  HIT %: 11.0822  MISS %: 88.9178  AVERAGE MISS PENALTY: 1031.97
LLC2 PREFETCH  ACCESS: 350908  HIT: 63067  MISS: 287841  HIT %: 17.9725  MISS %: 82.0275  AVERAGE MISS PENALTY: 881.425
LLC2 WRITEBACK ACCESS: 148070  HIT: 129620  MISS: 18450  HIT %: 87.5397  MISS %: 12.4603  AVERAGE MISS PENALTY: 0

LLC3 TOTAL     ACCESS: 579267  HIT: 205117  MISS: 374150  HIT %: 35.4098  MISS %: 64.5902  AVERAGE MISS PENALTY: 860.992
LLC3 LOAD      ACCESS: 24694  HIT:  6433  MISS: 18261  HIT %: 26.0509  MISS %: 73.9491  AVERAGE MISS PENALTY: 1006.58
LLC3 RFO       ACCESS: 54833  HIT:  6021  MISS: 48812  HIT %: 10.9806  MISS %: 89.0194  AVERAGE MISS PENALTY: 1035.51
LLC3 PREFETCH  ACCESS: 351761  HIT: 62931  MISS: 288830  HIT %: 17.8903  MISS %: 82.1097  AVERAGE MISS PENALTY: 876.687
[...]
LLC1 AVERAGE MISS LATENCY: 844.781 cycles
LLC2 TOTAL     ACCESS: 583803  HIT: 210296  MISS: 373507  HIT %: 36.0217  MISS %: 63.9783  AVERAGE MISS PENALTY: 863.114
LLC2 LOAD      ACCESS: 26160  HIT:  6542  MISS: 19618  HIT %: 25.0076  MISS %: 74.9924  AVERAGE MISS PENALTY: 952.426
LLC2 RFO       ACCESS: 54161  HIT:  5242  MISS: 48919  HIT %: 9.67855  MISS %: 90.3214  AVERAGE MISS PENALTY: 1046.96
LLC2 PREFETCH  ACCESS: 356757  HIT: 70280  MISS: 286477  HIT %: 19.6997  MISS %: 80.3003  AVERAGE MISS PENALTY: 881.32
LLC2 WRITEBACK ACCESS: 146725  HIT: 128232  MISS: 18493  HIT %: 87.3961  MISS %: 12.6039  AVERAGE MISS PENALTY: 0
LLC2 PREFETCH  REQUESTED:     0  ISSUED:     0  USEFUL: 46526  USELESS: 2259181
 USEFUL LOAD PREFETCHES:      46526 PREFETCH ISSUED TO LOWER LEVEL:   25129269  ACCURACY: 0.185147
 TIMELY PREFETCHES:      46526 LATE PREFETCHES: 0 DROPPED PREFETCHES: 0
LLC2 AVERAGE MISS LATENCY: 863.114 cycles
LLC3 TOTAL     ACCESS: 583211  HIT: 210665  MISS: 372546  HIT %: 36.1216  MISS %: 63.8784  AVERAGE MISS PENALTY: 862.378
LLC3 LOAD      ACCESS: 24370  HIT:  6243  MISS: 18127  HIT %: 25.6176  MISS %: 74.3824  AVERAGE MISS PENALTY: 980.514
LLC3 RFO       ACCESS: 54186  HIT:  5237  MISS: 48949  HIT %: 9.66486  MISS %: 90.3351  AVERAGE MISS PENALTY: 1035.25
LLC3 PREFETCH  ACCESS: 357877  HIT: 70595  MISS: 287282  HIT %: 19.7261  MISS %: 80.2739  AVERAGE MISS PENALTY: 880.066
LLC3 WRITEBACK ACCESS: 146778  HIT: 128590  MISS: 18188  HIT %: 87.6085  MISS %: 12.3915  AVERAGE MISS PENALTY: 0
LLC3 PREFETCH  REQUESTED:     0  ISSUED:     0  USEFUL: 46009  USELESS: 2267825
 USEFUL LOAD PREFETCHES:      46009 PREFETCH ISSUED TO LOWER LEVEL:   26720191  ACCURACY: 0.172188
 TIMELY PREFETCHES:      46009 LATE PREFETCHES: 0 DROPPED PREFETCHES: 0
LLC3 AVERAGE MISS LATENCY: 862.378 cycles
LLC4 TOTAL     ACCESS: 583918  HIT: 210170  MISS: 373748  HIT %: 35.9931  MISS %: 64.0069  AVERAGE MISS PENALTY: 867.234
LLC4 LOAD      ACCESS: 23522  HIT:  6047  MISS: 17475  HIT %: 25.7078  MISS %: 74.2922  AVERAGE MISS PENALTY: 1011.76
LLC4 RFO       ACCESS: 54123  HIT:  5184  MISS: 48939  HIT %: 9.57818  MISS %: 90.4218  AVERAGE MISS PENALTY: 1094.41
LLC4 PREFETCH  ACCESS: 359605  HIT: 70395  MISS: 289210  HIT %: 19.5756  MISS %: 80.4244  AVERAGE MISS PENALTY: 874.406
LLC4 WRITEBACK ACCESS: 146668  HIT: 128544  MISS: 18124  HIT %: 87.6428  MISS %: 12.3572  AVERAGE MISS PENALTY: 0
LLC4 PREFETCH  REQUESTED:     0  ISSUED:     0  USEFUL: 45669  USELESS: 2279566
 USEFUL LOAD PREFETCHES:      45669 PREFETCH ISSUED TO LOWER LEVEL:   29526363  ACCURACY: 0.154672
 TIMELY PREFETCHES:      45669 LATE PREFETCHES: 0 DROPPED PREFETCHES: 0
LLC4 AVERAGE MISS LATENCY: 867.234 cycles
LLC5 TOTAL     ACCESS: 584260  HIT: 209882  MISS: 374378  HIT %: 35.9227  MISS %: 64.0773  AVERAGE MISS PENALTY: 866.504
LLC5 LOAD      ACCESS: 23576  HIT:  5953  MISS: 17623  HIT %: 25.2503  MISS %: 74.7497  AVERAGE MISS PENALTY: 1016.78
LLC5 RFO       ACCESS: 54037  HIT:  5139  MISS: 48898  HIT %: 9.51015  MISS %: 90.4898  AVERAGE MISS PENALTY: 1085.29
LLC5 PREFETCH  ACCESS: 359984  HIT: 70312  MISS: 289672  HIT %: 19.532  MISS %: 80.468  AVERAGE MISS PENALTY: 874.826
LLC5 WRITEBACK ACCESS: 146663  HIT: 128478  MISS: 18185  HIT %: 87.6008  MISS %: 12.3992  AVERAGE MISS PENALTY: 0
LLC5 PREFETCH  REQUESTED:     0  ISSUED:     0  USEFUL: 45357  USELESS: 2282833
 USEFUL LOAD PREFETCHES:      45357 PREFETCH ISSUED TO LOWER LEVEL:   30642800  ACCURACY: 0.148018
 TIMELY PREFETCHES:      45357 LATE PREFETCHES: 0 DROPPED PREFETCHES: 0
LLC5 AVERAGE MISS LATENCY: 866.504 cycles
LLC6 TOTAL     ACCESS: 584263  HIT: 210075  MISS: 374188  HIT %: 35.9556  MISS %: 64.0444  AVERAGE MISS PENALTY: 876.902
LLC6 LOAD      ACCESS: 23686  HIT:  6039  MISS: 17647  HIT %: 25.4961  MISS %: 74.5039  AVERAGE MISS PENALTY: 1005.15
LLC6 RFO       ACCESS: 53984  HIT:  5201  MISS: 48783  HIT %: 9.63434  MISS %: 90.3657  AVERAGE MISS PENALTY: 1068.86
LLC6 PREFETCH  ACCESS: 359907  HIT: 70414  MISS: 289493  HIT %: 19.5645  MISS %: 80.4355  AVERAGE MISS PENALTY: 892.063
LLC6 WRITEBACK ACCESS: 146686  HIT: 128421  MISS: 18265  HIT %: 87.5482  MISS %: 12.4518  AVERAGE MISS PENALTY: 0
LLC6 PREFETCH  REQUESTED:     0  ISSUED:     0  USEFUL: 45634  USELESS: 2282406
 USEFUL LOAD PREFETCHES:      45634 PREFETCH ISSUED TO LOWER LEVEL:   34871148  ACCURACY: 0.130865
 TIMELY PREFETCHES:      45634 LATE PREFETCHES: 0 DROPPED PREFETCHES: 0
LLC6 AVERAGE MISS LATENCY: 876.902 cycles
LLC7 TOTAL     ACCESS: 584598  HIT: 210091  MISS: 374507  HIT %: 35.9377  MISS %: 64.0623  AVERAGE MISS PENALTY: 876.122
LLC7 LOAD      ACCESS: 23985  HIT:  6132  MISS: 17853  HIT %: 25.566  MISS %: 74.434  AVERAGE MISS PENALTY: 1002.4
LLC7 RFO       ACCESS: 53978  HIT:  5194  MISS: 48784  HIT %: 9.62244  MISS %: 90.3776  AVERAGE MISS PENALTY: 1063.87
LLC7 PREFETCH  ACCESS: 359972  HIT: 70860  MISS: 289112  HIT %: 19.6849  MISS %: 80.3151  AVERAGE MISS PENALTY: 893.488
LLC7 WRITEBACK ACCESS: 146663  HIT: 127905  MISS: 18758  HIT %: 87.2101  MISS %: 12.7899  AVERAGE MISS PENALTY: 0
LLC7 PREFETCH  REQUESTED:     0  ISSUED:     0  USEFUL: 46067  USELESS: 2280773
 USEFUL LOAD PREFETCHES:      46067 PREFETCH ISSUED TO LOWER LEVEL:   37956021  ACCURACY: 0.121369
 TIMELY PREFETCHES:      46067 LATE PREFETCHES: 0 DROPPED PREFETCHES: 0
LLC7 AVERAGE MISS LATENCY: 876.122 cycles
ROI Average ROB Stall Cycles:	18.6209
ROI Total ROB Stalls Cycles:	329638460
ROI TOTAL ROB counter      :	17702646
ROI Average Load ROB Stall Cycles:	77.7264
ROI Total Load ROB Stalls Cycle  :	255267394
ROI Total Load ROB stalls Counter:	3284177
Major fault: 0 Minor fault: 10906

CPU 7 cumulative IPC: 0.521713 instructions: 200000001 cycles: 383352204
ITLB TOTAL     ACCESS: 29847071  HIT: 29846891  MISS:   180  HIT %: 99.9994  MISS %: 0.000603074  AVERAGE MISS PENALTY: 126.394
ITLB LOAD      ACCESS: 29847071  HIT: 29846891  MISS:   180  HIT %: 99.9994  MISS %: 0.000603074  AVERAGE MISS PENALTY: 126.394
ITLB RFO       ACCESS:     0  HIT:     0  MISS:     0  HIT %:     0  MISS %:     0  AVERAGE MISS PENALTY: 0
ITLB PREFETCH  ACCESS:     0  HIT:     0  MISS:     0  HIT %:     0  MISS %:     0  AVERAGE MISS PENALTY: 0
ITLB WRITEBACK ACCESS:     0  HIT:     0  MISS:     0  HIT %:     0  MISS %:     0  AVERAGE MISS PENALTY: 0
ITLB PREFETCH  REQUESTED:     0  ISSUED:     0  USEFUL:     0  USELESS:     0
 USEFUL LOAD PREFETCHES:          0 PREFETCH ISSUED TO LOWER LEVEL:          0  ACCURACY: -nan
 TIMELY PREFETCHES:          0 LATE PREFETCHES: 0 DROPPED PREFETCHES: 0
ITLB AVERAGE MISS LATENCY: 126.394 cycles
DTLB TOTAL     ACCESS: 52115712  HIT: 51951631  MISS: 164081  HIT %: 99.6852  MISS %: 0.31484  AVERAGE MISS PENALTY: 37.8538
DTLB LOAD      ACCESS: 45900458  HIT: 45760695  MISS: 139763  HIT %: 99.6955  MISS %: 0.304492  AVERAGE MISS PENALTY: 39.1379
DTLB RFO       ACCESS: 6215254  HIT: 6190936  MISS: 24318  HIT %: 99.6087  MISS %: 0.391263  AVERAGE MISS PENALTY: 30.4738
DTLB PREFETCH  ACCESS:     0  HIT:     0  MISS:     0  HIT %:     0  MISS %:     0  AVERAGE MISS PENALTY: 0
DTLB WRITEBACK ACCESS:     0  HIT:     0  MISS:     0  HIT %:     0  MISS %:     0  AVERAGE MISS PENALTY: 0
DTLB PREFETCH  REQUESTED:     0  ISSUED:     0  USEFUL:     0  USELESS:     0
 USEFUL LOAD PREFETCHES:          0 PREFETCH ISSUED TO LOWER LEVEL:          0  ACCURACY: -nan
 TIMELY PREFETCHES:          0 LATE PREFETCHES: 0 DROPPED PREFETCHES: 0
DTLB AVERAGE MISS LATENCY: 37.8538 cycles
STLB TOTAL     ACCESS: 164261  HIT: 133838  MISS: 30423  HIT %: 81.4789  MISS %: 18.5211  AVERAGE MISS PENALTY: 100
STLB LOAD      ACCESS: 139943  HIT: 114143  MISS: 25800  HIT %: 81.5639  MISS %: 18.4361  AVERAGE MISS PENALTY: 100
STLB RFO       ACCESS: 24318  HIT: 19695  MISS:  4623  HIT %: 80.9894  MISS %: 19.0106  AVERAGE MISS PENALTY: 100
STLB PREFETCH  ACCESS:     0  HIT:     0  MISS:     0  HIT %:     0  MISS %:     0  AVERAGE MISS PENALTY: 0
STLB WRITEBACK ACCESS:     0  HIT:     0  MISS:     0  HIT %:     0  MISS %:     0  AVERAGE MISS PENALTY: 0
STLB PREFETCH  REQUESTED:     0  ISSUED:     0  USEFUL:     0  USELESS:     0
 USEFUL LOAD PREFETCHES:          0 PREFETCH ISSUED TO LOWER LEVEL:          0  ACCURACY: -nan
 TIMELY PREFETCHES:          0 LATE PREFETCHES: 0 DROPPED PREFETCHES: 0
STLB AVERAGE MISS LATENCY: 100 cycles
L1D TOTAL     ACCESS: 61800901  HIT: 57404075  MISS: 4396826  HIT %: 92.8855  MISS %: 7.1145  AVERAGE MISS PENALTY: 3.70874e+07
L1D LOAD      ACCESS: 41688833  HIT: 40602946  MISS: 1085887  HIT %: 97.3953  MISS %: 2.60474  AVERAGE MISS PENALTY: 1.50018e+08
L1D RFO       ACCESS: 8077913  HIT: 7486116  MISS: 591797  HIT %: 92.6739  MISS %: 7.32611  AVERAGE MISS PENALTY: 277009
L1D PREFETCH  ACCESS: 12034155  HIT: 9315013  MISS: 2719142  HIT %: 77.4048  MISS %: 22.5952  AVERAGE MISS PENALTY: 229.063
L1D WRITEBACK ACCESS:     0  HIT:     0  MISS:     0  HIT %:     0  MISS %:     0  AVERAGE MISS PENALTY: 0
L1D PREFETCH  REQUESTED: 16060091  ISSUED: 14226248  USEFUL: 2543736  USELESS: 175414
 USEFUL LOAD PREFETCHES:    2543736 PREFETCH ISSUED TO LOWER LEVEL:   28595836  ACCURACY: 8.89548
 TIMELY PREFETCHES:    2543736 LATE PREFETCHES: 717823 DROPPED PREFETCHES: 1833843
L1D AVERAGE MISS LATENCY: 37552.4 cycles
L1I TOTAL     ACCESS: 41562461  HIT: 41555564  MISS:  6897  HIT %: 99.9834  MISS %: 0.0165943  AVERAGE MISS PENALTY: 743.811
L1I LOAD      ACCESS: 41562461  HIT: 41555564  MISS:  6897  HIT %: 99.9834  MISS %: 0.0165943  AVERAGE MISS PENALTY: 743.811
L1I RFO       ACCESS:     0  HIT:     0  MISS:     0  HIT %:     0  MISS %:     0  AVERAGE MISS PENALTY: 0
L1I PREFETCH  ACCESS:     0  HIT:     0  MISS:     0  HIT %:     0  MISS %:     0  AVERAGE MISS PENALTY: 0
L1I WRITEBACK ACCESS:     0  HIT:     0  MISS:     0  HIT %:     0  MISS %:     0  AVERAGE MISS PENALTY: 0
L1I PREFETCH  REQUESTED:     0  ISSUED:     0  USEFUL:     0  USELESS:     0
 USEFUL LOAD PREFETCHES:          0 PREFETCH ISSUED TO LOWER LEVEL:          0  ACCURACY: -nan
 TIMELY PREFETCHES:          0 LATE PREFETCHES: 0 DROPPED PREFETCHES: 0
L1I AVERAGE MISS LATENCY: 743.811 cycles
L2C TOTAL     ACCESS: 9263424  HIT: 5687662  MISS: 3575762  HIT %: 61.3991  MISS %: 38.6009  AVERAGE MISS PENALTY: 4.19204e+07
L2C LOAD      ACCESS: 1068856  HIT: 305821  MISS: 763035  HIT %: 28.612  MISS %: 71.388  AVERAGE MISS PENALTY: 1.9643e+08
L2C RFO       ACCESS: 591204  HIT: 147531  MISS: 443673  HIT %: 24.9543  MISS %: 75.0457  AVERAGE MISS PENALTY: 29291.2
L2C PREFETCH  ACCESS: 6160344  HIT: 3851172  MISS: 2309172  HIT %: 62.5155  MISS %: 37.4845  AVERAGE MISS PENALTY: 626.448
L2C WRITEBACK ACCESS: 1443020  HIT: 1383138  MISS: 59882  HIT %: 95.8502  MISS %: 4.14977  AVERAGE MISS PENALTY: 0
L2C PREFETCH  REQUESTED: 6347521  ISSUED: 6325361  USEFUL: 207889  USELESS: 2100065
 USEFUL LOAD PREFETCHES:     207889 PREFETCH ISSUED TO LOWER LEVEL:    4690881  ACCURACY: 4.43177
 TIMELY PREFETCHES:     207889 LATE PREFETCHES: 634662 DROPPED PREFETCHES: 22160
L2C AVERAGE MISS LATENCY: 681.984 cycles
LLC0 TOTAL     ACCESS: 586675  HIT: 214150  MISS: 372525  HIT %: 36.5023  MISS %: 63.4977  AVERAGE MISS PENALTY: 846.156
LLC0 LOAD      ACCESS: 65827  HIT: 14577  MISS: 51250  HIT %: 22.1444  MISS %: 77.8556  AVERAGE MISS PENALTY: 850.668
LLC0 RFO       ACCESS: 55584  HIT:  6809  MISS: 48775  HIT %: 12.2499  MISS %: 87.7501  AVERAGE MISS PENALTY: 1106.5
LLC0 PREFETCH  ACCESS: 316052  HIT: 64105  MISS: 251947  HIT %: 20.2831  MISS %: 79.7169  AVERAGE MISS PENALTY: 863.863
LLC0 WRITEBACK ACCESS: 149212  HIT: 128659  MISS: 20553  HIT %: 86.2256  MISS %: 13.7744  AVERAGE MISS PENALTY: 0
LLC0 PREFETCH  REQUESTED:     0  ISSUED:     0  USEFUL: 40549  USELESS: 1994316
 USEFUL LOAD PREFETCHES:      40549 PREFETCH ISSUED TO LOWER LEVEL:   20411487  ACCURACY: 0.198658
 TIMELY PREFETCHES:      40549 LATE PREFETCHES: 0 DROPPED PREFETCHES: 0
LLC0 AVERAGE MISS LATENCY: 846.156 cycles
Deadblocks : 370979 Deadblock percentage : 723.861

LLC1 TOTAL     ACCESS: 587876  HIT: 215349  MISS: 372527  HIT %: 36.6317  MISS %: 63.3683  AVERAGE MISS PENALTY: 852.132
LLC1 LOAD      ACCESS: 32618  HIT:  8225  MISS: 24393  HIT %: 25.2161  MISS %: 74.7839  AVERAGE MISS PENALTY: 965.811
LLC1 RFO       ACCESS: 55561  HIT:  6828  MISS: 48733  HIT %: 12.2892  MISS %: 87.7108  AVERAGE MISS PENALTY: 1111.38
LLC1 PREFETCH  ACCESS: 350543  HIT: 70744  MISS: 279799  HIT %: 20.1813  MISS %: 79.8187  AVERAGE MISS PENALTY: 856.766
LLC1 WRITEBACK ACCESS: 149154  HIT: 129552  MISS: 19602  HIT %: 86.8579  MISS %: 13.1421  AVERAGE MISS PENALTY: 0
LLC1 PREFETCH  REQUESTED:     0  ISSUED:     0  USEFUL: 47123  USELESS: 2211692
 USEFUL LOAD PREFETCHES:      47123 PREFETCH ISSUED TO LOWER LEVEL:   23016902  ACCURACY: 0.204732
 TIMELY PREFETCHES:      47123 LATE PREFETCHES: 0 DROPPED PREFETCHES: 0
LLC1 AVERAGE MISS LATENCY: 852.132 cycles
LLC2 TOTAL     ACCESS: 588636  HIT: 215990  MISS: 372646  HIT %: 36.6933  MISS %: 63.3067  AVERAGE MISS PENALTY: 868.729
LLC2 LOAD      ACCESS: 26420  HIT:  7130  MISS: 19290  HIT %: 26.9871  MISS %: 73.0129  AVERAGE MISS PENALTY: 961.196
LLC2 RFO       ACCESS: 55462  HIT:  6655  MISS: 48807  HIT %: 11.9992  MISS %: 88.0008  AVERAGE MISS PENALTY: 1076.13
LLC2 PREFETCH  ACCESS: 357679  HIT: 72001  MISS: 285678  HIT %: 20.1301  MISS %: 79.8699  AVERAGE MISS PENALTY: 884.437
LLC2 WRITEBACK ACCESS: 149075  HIT: 130204  MISS: 18871  HIT %: 87.3413  MISS %: 12.6587  AVERAGE MISS PENALTY: 0
LLC2 PREFETCH  REQUESTED:     0  ISSUED:     0  USEFUL: 46526  USELESS: 2259181
 USEFUL LOAD PREFETCHES:      46526 PREFETCH ISSUED TO LOWER LEVEL:   25129269  ACCURACY: 0.185147
 TIMELY PREFETCHES:      46526 LATE PREFETCHES: 0 DROPPED PREFETCHES: 0
LLC2 AVERAGE MISS LATENCY: 868.729 cycles
LLC3 TOTAL     ACCESS: 587980  HIT: 215982  MISS: 371998  HIT %: 36.7329  MISS %: 63.2671  AVERAGE MISS PENALTY: 870.908
LLC3 LOAD      ACCESS: 24860  HIT:  6792  MISS: 18068  HIT %: 27.321  MISS %: 72.679  AVERAGE MISS PENALTY: 987.82
LLC3 RFO       ACCESS: 55475  HIT:  6721  MISS: 48754  HIT %: 12.1154  MISS %: 87.8846  AVERAGE MISS PENALTY: 1079.6
LLC3 PREFETCH  ACCESS: 358528  HIT: 71992  MISS: 286536  HIT %: 20.0799  MISS %: 79.9201  AVERAGE MISS PENALTY: 884.682
LLC3 WRITEBACK ACCESS: 149117  HIT: 130477  MISS: 18640  HIT %: 87.4997  MISS %: 12.5003  AVERAGE MISS PENALTY: 0
LLC3 PREFETCH  REQUESTED:     0  ISSUED:     0  USEFUL: 46009  USELESS: 2267825
 USEFUL LOAD PREFETCHES:      46009 PREFETCH ISSUED TO LOWER LEVEL:   26720191  ACCURACY: 0.172188
 TIMELY PREFETCHES:      46009 LATE PREFETCHES: 0 DROPPED PREFETCHES: 0
LLC3 AVERAGE MISS LATENCY: 870.908 cycles
LLC4 TOTAL     ACCESS: 588737  HIT: 216094  MISS: 372643  HIT %: 36.7047  MISS %: 63.2953  AVERAGE MISS PENALTY: 874.854
LLC4 LOAD      ACCESS: 24017  HIT:  6661  MISS: 17356  HIT %: 27.7345  MISS %: 72.2655  AVERAGE MISS PENALTY: 1016.81
LLC4 RFO       ACCESS: 55403  HIT:  6758  MISS: 48645  HIT %: 12.1979  MISS %: 87.8021  AVERAGE MISS PENALTY: 1129.28
LLC4 PREFETCH  ACCESS: 360274  HIT: 72519  MISS: 287755  HIT %: 20.1288  MISS %: 79.8712  AVERAGE MISS PENALTY: 880.702
LLC4 WRITEBACK ACCESS: 149043  HIT: 130156  MISS: 18887  HIT %: 87.3278  MISS %: 12.6722  AVERAGE MISS PENALTY: 0
LLC4 PREFETCH  REQUESTED:     0  ISSUED:     0  USEFUL: 45669  USELESS: 2279566
 USEFUL LOAD PREFETCHES:      45669 PREFETCH ISSUED TO LOWER LEVEL:   29526363  ACCURACY: 0.154672
 TIMELY PREFETCHES:      45669 LATE PREFETCHES: 0 DROPPED PREFETCHES: 0
LLC4 AVERAGE MISS LATENCY: 874.854 cycles
LLC5 TOTAL     ACCESS: 589375  HIT: 216771  MISS: 372604  HIT %: 36.7798  MISS %: 63.2202  AVERAGE MISS PENALTY: 873.406
LLC5 LOAD      ACCESS: 24260  HIT:  6784  MISS: 17476  HIT %: 27.9637  MISS %: 72.0363  AVERAGE MISS PENALTY: 1026.26
LLC5 RFO       ACCESS: 55357  HIT:  6753  MISS: 48604  HIT %: 12.199  MISS %: 87.801  AVERAGE MISS PENALTY: 1123.6
LLC5 PREFETCH  ACCESS: 360667  HIT: 72549  MISS: 288118  HIT %: 20.1152  MISS %: 79.8848  AVERAGE MISS PENALTY: 877.725
LLC5 WRITEBACK ACCESS: 149091  HIT: 130685  MISS: 18406  HIT %: 87.6545  MISS %: 12.3455  AVERAGE MISS PENALTY: 0
LLC5 PREFETCH  REQUESTED:     0  ISSUED:     0  USEFUL: 45357  USELESS: 2282833
 USEFUL LOAD PREFETCHES:      45357 PREFETCH ISSUED TO LOWER LEVEL:   30642800  ACCURACY: 0.148018
 TIMELY PREFETCHES:      45357 LATE PREFETCHES: 0 DROPPED PREFETCHES: 0
LLC5 AVERAGE MISS LATENCY: 873.406 cycles
LLC6 TOTAL     ACCESS: 589632  HIT: 216361  MISS: 373271  HIT %: 36.6942  MISS %: 63.3058  AVERAGE MISS PENALTY: 882.87
LLC6 LOAD      ACCESS: 24294  HIT:  6724  MISS: 17570  HIT %: 27.6776  MISS %: 72.3224  AVERAGE MISS PENALTY: 1000.92
LLC6 RFO       ACCESS: 55404  HIT:  6734  MISS: 48670  HIT %: 12.1544  MISS %: 87.8456  AVERAGE MISS PENALTY: 1090.51
LLC6 PREFETCH  ACCESS: 360769  HIT: 72448  MISS: 288321  HIT %: 20.0815  MISS %: 79.9185  AVERAGE MISS PENALTY: 897.918
LLC6 WRITEBACK ACCESS: 149165  HIT: 130455  MISS: 18710  HIT %: 87.4568  MISS %: 12.5432  AVERAGE MISS PENALTY: 0
LLC6 PREFETCH  REQUESTED:     0  ISSUED:     0  USEFUL: 45634  USELESS: 2282406
 USEFUL LOAD PREFETCHES:      45634 PREFETCH ISSUED TO LOWER LEVEL:   34871148  ACCURACY: 0.130865
 TIMELY PREFETCHES:      45634 LATE PREFETCHES: 0 DROPPED PREFETCHES: 0
LLC6 AVERAGE MISS LATENCY: 882.87 cycles
LLC7 TOTAL     ACCESS: 590083  HIT: 216361  MISS: 373722  HIT %: 36.6662  MISS %: 63.3338  AVERAGE MISS PENALTY: 882.863
LLC7 LOAD      ACCESS: 24515  HIT:  6789  MISS: 17726  HIT %: 27.6932  MISS %: 72.3068  AVERAGE MISS PENALTY: 1015.3
LLC7 RFO       ACCESS: 55378  HIT:  6861  MISS: 48517  HIT %: 12.3894  MISS %: 87.6106  AVERAGE MISS PENALTY: 1108.11
LLC7 PREFETCH  ACCESS: 360922  HIT: 72534  MISS: 288388  HIT %: 20.0969  MISS %: 79.9031  AVERAGE MISS PENALTY: 895.272
LLC7 WRITEBACK ACCESS: 149268  HIT: 130177  MISS: 19091  HIT %: 87.2103  MISS %: 12.7897  AVERAGE MISS PENALTY: 0
LLC7 PREFETCH  REQUESTED:     0  ISSUED:     0  USEFUL: 46067  USELESS: 2280773
 USEFUL LOAD PREFETCHES:      46067 PREFETCH ISSUED TO LOWER LEVEL:   37956021  ACCURACY: 0.121369
 TIMELY PREFETCHES:      46067 LATE PREFETCHES: 0 DROPPED PREFETCHES: 0
LLC7 AVERAGE MISS LATENCY: 882.863 cycles
ROI Average ROB Stall Cycles:	18.5804
ROI Total ROB Stalls Cycles:	328867927
ROI TOTAL ROB counter      :	17699702
ROI Average Load ROB Stall Cycles:	77.4845
ROI Total Load ROB Stalls Cycle  :	254490461
ROI Total Load ROB stalls Counter:	3284406
Major fault: 0 Minor fault: 10906








Interconnect Stats 
LINK 0 BW : 0LINK 1 BW : 0LINK 2 BW : 0LINK 3 BW : 0LINK 4 BW : 0LINK 5 BW : 0LINK 6 BW : 0LINK 7 BW : 0
DRAM Statistics
 CHANNEL 0
 RQ ROW_BUFFER_HIT: 3226976  ROW_BUFFER_MISS: 8152283
 DBUS_CONGESTED: 14624844
 WQ ROW_BUFFER_HIT: 340927  ROW_BUFFER_MISS: 3637607  FULL:     0

 CHANNEL 1
 RQ ROW_BUFFER_HIT: 3233721  ROW_BUFFER_MISS: 8152868
 DBUS_CONGESTED: 14624844
 WQ ROW_BUFFER_HIT: 338452  ROW_BUFFER_MISS: 3641374  FULL:     0

 AVG_CONGESTED_CYCLE: 6
DRAM PAGES: 2097152
Allocated PAGES: 87248
L2C destructor called
L1D destructor called
L1I destructor called
STLB destructor called
DTLB destructor called
ITLB destructor called
L2C destructor called
L1D destructor called
L1I destructor called
STLB destructor called
DTLB destructor called
ITLB destructor called
L2C destructor called
L1D destructor called
L1I destructor called
STLB destructor called
DTLB destructor called
ITLB destructor called
L2C destructor called
L1D destructor called
L1I destructor called
STLB destructor called
DTLB destructor called
ITLB destructor called
L2C destructor called
L1D destructor called
L1I destructor called
STLB destructor called
DTLB destructor called
ITLB destructor called
L2C destructor called
L1D destructor called
L1I destructor called
STLB destructor called
DTLB destructor called
ITLB destructor called
L2C destructor called
L1D destructor called
L1I destructor called
STLB destructor called
DTLB destructor called
ITLB destructor called
L2C destructor called
L1D destructor called
L1I destructor called
STLB destructor called
DTLB destructor called
ITLB destructor called
