
*** ChampSim Multicore Out-of-Order Simulator ***

Warmup Instructions: 200000000
Simulation Instructions: 200000000
Number of CPUs: 8
threads:1

L1I Configuration:
L1I_SET:64
L1I_WAY:8
L1I_RQ_SIZE:64
L1I_WQ_SIZE:64
L1I_PQ_SIZE:8
L1I_MSHR_SIZE:8

L1D Configuration:
L1D_SET:64
L1D_WAY:12
L1D_RQ_SIZE:64
L1D_WQ_SIZE:64
L1D_PQ_SIZE:8
L1D_MSHR_SIZE:16

L2C Configuration:
L2C_SET:1024
L2C_WAY:8
L2C_RQ_SIZE:32
L2C_WQ_SIZE:32
L2C_PQ_SIZE:16
L2C_MSHR_SIZE:32

LLC Configuration:
LLC_SET:2048
LLC_WAY:16
LLC SLICES:8
LLC_RQ_SIZE:64
LLC_WQ_SIZE:64
LLC_PQ_SIZE:32
LLC_MSHR_SIZE:64

Interconnect OFF
Attacker deprioritize is: OFF
Off-chip DRAM Size: 8192 MB Channels: 2 Width: 64-bit Data Rate: 3200 MT/s
PAGE SIZE in KB: 4.000000 
PAGE SIZE in MB: 0.003906 
PAGE offset in bits: 12 
CEASER-S_LLC:0
MIRAGE : 0
CEASER_LATENCY:3
REMAP : OFF
Partitions : 1
Multi-Step : OFF
BFS : OFF

CPU 0 runs /home/anubhav/spec_2017/623.xalancbmk_s-165B.champsimtrace.xz
CPU 1 runs /home/anubhav/spec_2017/623.xalancbmk_s-165B.champsimtrace.xz
CPU 2 runs /home/anubhav/spec_2017/623.xalancbmk_s-165B.champsimtrace.xz
CPU 3 runs /home/anubhav/spec_2017/623.xalancbmk_s-165B.champsimtrace.xz
CPU 4 runs /home/anubhav/spec_2017/623.xalancbmk_s-165B.champsimtrace.xz
CPU 5 runs /home/anubhav/spec_2017/623.xalancbmk_s-165B.champsimtrace.xz
CPU 6 runs /home/anubhav/spec_2017/623.xalancbmk_s-165B.champsimtrace.xz
CPU 7 runs /home/anubhav/spec_2017/623.xalancbmk_s-165B.champsimtrace.xz
CPU 0 Bimodal branch predictor
Initialize Hawkeye state
Initialize Hawkeye state
Initialize Hawkeye state
Initialize Hawkeye state
Initialize Hawkeye state
Initialize Hawkeye state
Initialize Hawkeye state
Initialize Hawkeye state
CPU 1 Bimodal branch predictor
Initialize Hawkeye state
Initialize Hawkeye state
Initialize Hawkeye state
Initialize Hawkeye state
Initialize Hawkeye state
Initialize Hawkeye state
Initialize Hawkeye state
Initialize Hawkeye state
CPU 2 Bimodal branch predictor
Initialize Hawkeye state
Initialize Hawkeye state
Initialize Hawkeye state
Initialize Hawkeye state
Initialize Hawkeye state
Initialize Hawkeye state
Initialize Hawkeye state
Initialize Hawkeye state
CPU 3 Bimodal branch predictor
Initialize Hawkeye state
Initialize Hawkeye state
Initialize Hawkeye state
Initialize Hawkeye state
Initialize Hawkeye state
Initialize Hawkeye state
Initialize Hawkeye state
Initialize Hawkeye state
CPU 4 Bimodal branch predictor
Initialize Hawkeye state
Initialize Hawkeye state
Initialize Hawkeye state
Initialize Hawkeye state
Initialize Hawkeye state
Initialize Hawkeye state
Initialize Hawkeye state
Initialize Hawkeye state
CPU 5 Bimodal branch predictor
Initialize Hawkeye state
Initialize Hawkeye state
Initialize Hawkeye state
Initialize Hawkeye state
Initialize Hawkeye state
Initialize Hawkeye state
Initialize Hawkeye state
Initialize Hawkeye state
CPU 6 Bimodal branch predictor
Initialize Hawkeye state
Initialize Hawkeye state
Initialize Hawkeye state
Initialize Hawkeye state
Initialize Hawkeye state
Initialize Hawkeye state
Initialize Hawkeye state
Initialize Hawkeye state
CPU 7 Bimodal branch predictor
Initialize Hawkeye state
Initialize Hawkeye state
Initialize Hawkeye state
Initialize Hawkeye state
Initialize Hawkeye state
Initialize Hawkeye state
Initialize Hawkeye state
Initialize Hawkeye state
Heartbeat CPU 0 instructions: 10000001 cycles: 6032661 heartbeat IPC: 1.65764 cumulative IPC: 1.65764 (Simulation time: 1 hr 39 min 10 sec) 
 Total Blocks : 262144 Invalid Blocks : 6362
Heartbeat CPU 3 instructions: 10000001 cycles: 6032677 heartbeat IPC: 1.65764 cumulative IPC: 1.65764 (Simulation time: 1 hr 39 min 14 sec) 
 Total Blocks : 262144 Invalid Blocks : 6362
Heartbeat CPU 4 instructions: 10000001 cycles: 6032678 heartbeat IPC: 1.65764 cumulative IPC: 1.65764 (Simulation time: 1 hr 39 min 14 sec) 
 Total Blocks : 262144 Invalid Blocks : 6362
Heartbeat CPU 1 instructions: 10000001 cycles: 6032686 heartbeat IPC: 1.65764 cumulative IPC: 1.65764 (Simulation time: 1 hr 39 min 14 sec) 
 Total Blocks : 262144 Invalid Blocks : 6362
Heartbeat CPU 2 instructions: 10000001 cycles: 6032688 heartbeat IPC: 1.65764 cumulative IPC: 1.65764 (Simulation time: 1 hr 39 min 14 sec) 
 Total Blocks : 262144 Invalid Blocks : 6362
Heartbeat CPU 5 instructions: 10000001 cycles: 6032688 heartbeat IPC: 1.65764 cumulative IPC: 1.65764 (Simulation time: 1 hr 39 min 14 sec) 
 Total Blocks : 262144 Invalid Blocks : 6362
Heartbeat CPU 7 instructions: 10000001 cycles: 6032705 heartbeat IPC: 1.65763 cumulative IPC: 1.65763 (Simulation time: 1 hr 39 min 15 sec) 
 Total Blocks : 262144 Invalid Blocks : 6362
Heartbeat CPU 6 instructions: 10000001 cycles: 6032707 heartbeat IPC: 1.65763 cumulative IPC: 1.65763 (Simulation time: 1 hr 39 min 15 sec) 
 Total Blocks : 262144 Invalid Blocks : 6362
Heartbeat CPU 3 instructions: 20000000 cycles: 12062525 heartbeat IPC: 1.65842 cumulative IPC: 1.65803 (Simulation time: 3 hr 17 min 51 sec) 
 Total Blocks : 262144 Invalid Blocks : 1037
Heartbeat CPU 4 instructions: 20000000 cycles: 12062537 heartbeat IPC: 1.65841 cumulative IPC: 1.65803 (Simulation time: 3 hr 17 min 58 sec) 
 Total Blocks : 262144 Invalid Blocks : 1037
Heartbeat CPU 0 instructions: 20000000 cycles: 12062553 heartbeat IPC: 1.6584 cumulative IPC: 1.65802 (Simulation time: 3 hr 17 min 59 sec) 
 Total Blocks : 262144 Invalid Blocks : 1037
Heartbeat CPU 7 instructions: 20000000 cycles: 12062557 heartbeat IPC: 1.65842 cumulative IPC: 1.65802 (Simulation time: 3 hr 17 min 59 sec) 
 Total Blocks : 262144 Invalid Blocks : 1037
Heartbeat CPU 2 instructions: 20000000 cycles: 12062559 heartbeat IPC: 1.65841 cumulative IPC: 1.65802 (Simulation time: 3 hr 17 min 59 sec) 
 Total Blocks : 262144 Invalid Blocks : 1037
Heartbeat CPU 1 instructions: 20000000 cycles: 12062561 heartbeat IPC: 1.65841 cumulative IPC: 1.65802 (Simulation time: 3 hr 17 min 59 sec) 
 Total Blocks : 262144 Invalid Blocks : 1037
Heartbeat CPU 5 instructions: 20000000 cycles: 12062567 heartbeat IPC: 1.65841 cumulative IPC: 1.65802 (Simulation time: 3 hr 17 min 59 sec) 
 Total Blocks : 262144 Invalid Blocks : 1037
Heartbeat CPU 6 instructions: 20000000 cycles: 12062584 heartbeat IPC: 1.65841 cumulative IPC: 1.65802 (Simulation time: 3 hr 17 min 59 sec) 
 Total Blocks : 262144 Invalid Blocks : 1037
Heartbeat CPU 4 instructions: 30000001 cycles: 18082096 heartbeat IPC: 1.66125 cumulative IPC: 1.6591 (Simulation time: 4 hr 48 min 6 sec) 
 Total Blocks : 262144 Invalid Blocks : 272
Heartbeat CPU 3 instructions: 30000001 cycles: 18082120 heartbeat IPC: 1.66124 cumulative IPC: 1.6591 (Simulation time: 4 hr 48 min 13 sec) 
 Total Blocks : 262144 Invalid Blocks : 272
Heartbeat CPU 7 instructions: 30000001 cycles: 18082125 heartbeat IPC: 1.66125 cumulative IPC: 1.6591 (Simulation time: 4 hr 48 min 13 sec) 
 Total Blocks : 262144 Invalid Blocks : 272
Heartbeat CPU 5 instructions: 30000001 cycles: 18082136 heartbeat IPC: 1.66125 cumulative IPC: 1.6591 (Simulation time: 4 hr 48 min 13 sec) 
 Total Blocks : 262144 Invalid Blocks : 272
Heartbeat CPU 0 instructions: 30000001 cycles: 18082141 heartbeat IPC: 1.66124 cumulative IPC: 1.6591 (Simulation time: 4 hr 48 min 13 sec) 
 Total Blocks : 262144 Invalid Blocks : 272
Heartbeat CPU 1 instructions: 30000001 cycles: 18082155 heartbeat IPC: 1.66124 cumulative IPC: 1.65909 (Simulation time: 4 hr 48 min 13 sec) 
 Total Blocks : 262144 Invalid Blocks : 272
Heartbeat CPU 2 instructions: 30000001 cycles: 18082156 heartbeat IPC: 1.66124 cumulative IPC: 1.65909 (Simulation time: 4 hr 48 min 13 sec) 
 Total Blocks : 262144 Invalid Blocks : 272
Heartbeat CPU 6 instructions: 30000001 cycles: 18082174 heartbeat IPC: 1.66124 cumulative IPC: 1.65909 (Simulation time: 4 hr 48 min 13 sec) 
 Total Blocks : 262144 Invalid Blocks : 272
Heartbeat CPU 4 instructions: 40000001 cycles: 24106160 heartbeat IPC: 1.66001 cumulative IPC: 1.65933 (Simulation time: 6 hr 17 min 32 sec) 
 Total Blocks : 262144 Invalid Blocks : 91
Heartbeat CPU 3 instructions: 40000001 cycles: 24106222 heartbeat IPC: 1.66 cumulative IPC: 1.65932 (Simulation time: 6 hr 17 min 37 sec) 
 Total Blocks : 262144 Invalid Blocks : 91
Heartbeat CPU 5 instructions: 40000001 cycles: 24106222 heartbeat IPC: 1.66 cumulative IPC: 1.65932 (Simulation time: 6 hr 17 min 37 sec) 
 Total Blocks : 262144 Invalid Blocks : 91
Heartbeat CPU 7 instructions: 40000001 cycles: 24106222 heartbeat IPC: 1.66 cumulative IPC: 1.65932 (Simulation time: 6 hr 17 min 37 sec) 
 Total Blocks : 262144 Invalid Blocks : 91
Heartbeat CPU 2 instructions: 40000001 cycles: 24106251 heartbeat IPC: 1.66 cumulative IPC: 1.65932 (Simulation time: 6 hr 17 min 38 sec) 
 Total Blocks : 262144 Invalid Blocks : 91
Heartbeat CPU 0 instructions: 40000001 cycles: 24106253 heartbeat IPC: 1.66 cumulative IPC: 1.65932 (Simulation time: 6 hr 17 min 38 sec) 
 Total Blocks : 262144 Invalid Blocks : 91
Heartbeat CPU 6 instructions: 40000001 cycles: 24106268 heartbeat IPC: 1.66 cumulative IPC: 1.65932 (Simulation time: 6 hr 17 min 38 sec) 
 Total Blocks : 262144 Invalid Blocks : 91
Heartbeat CPU 1 instructions: 40000001 cycles: 24106295 heartbeat IPC: 1.65999 cumulative IPC: 1.65932 (Simulation time: 6 hr 17 min 38 sec) 
 Total Blocks : 262144 Invalid Blocks : 91
Heartbeat CPU 4 instructions: 50000000 cycles: 30131523 heartbeat IPC: 1.65965 cumulative IPC: 1.65939 (Simulation time: 7 hr 46 min 53 sec) 
 Total Blocks : 262144 Invalid Blocks : 42
Heartbeat CPU 5 instructions: 50000000 cycles: 30131587 heartbeat IPC: 1.65965 cumulative IPC: 1.65939 (Simulation time: 7 hr 46 min 59 sec) 
 Total Blocks : 262144 Invalid Blocks : 42
Heartbeat CPU 3 instructions: 50000000 cycles: 30131597 heartbeat IPC: 1.65965 cumulative IPC: 1.65939 (Simulation time: 7 hr 47 min 0 sec) 
 Total Blocks : 262144 Invalid Blocks : 42
Heartbeat CPU 7 instructions: 50000000 cycles: 30131613 heartbeat IPC: 1.65964 cumulative IPC: 1.65939 (Simulation time: 7 hr 47 min 0 sec) 
 Total Blocks : 262144 Invalid Blocks : 42
Heartbeat CPU 2 instructions: 50000000 cycles: 30131623 heartbeat IPC: 1.65965 cumulative IPC: 1.65939 (Simulation time: 7 hr 47 min 0 sec) 
 Total Blocks : 262144 Invalid Blocks : 42
Heartbeat CPU 0 instructions: 50000000 cycles: 30131656 heartbeat IPC: 1.65964 cumulative IPC: 1.65938 (Simulation time: 7 hr 47 min 0 sec) 
 Total Blocks : 262144 Invalid Blocks : 42
Heartbeat CPU 6 instructions: 50000000 cycles: 30131665 heartbeat IPC: 1.65964 cumulative IPC: 1.65938 (Simulation time: 7 hr 47 min 0 sec) 
 Total Blocks : 262144 Invalid Blocks : 42
Heartbeat CPU 1 instructions: 50000000 cycles: 30131719 heartbeat IPC: 1.65963 cumulative IPC: 1.65938 (Simulation time: 7 hr 47 min 0 sec) 
 Total Blocks : 262144 Invalid Blocks : 42
Heartbeat CPU 4 instructions: 60000000 cycles: 36159889 heartbeat IPC: 1.65882 cumulative IPC: 1.6593 (Simulation time: 9 hr 14 min 54 sec) 
 Total Blocks : 262144 Invalid Blocks : 13
Heartbeat CPU 3 instructions: 60000000 cycles: 36159971 heartbeat IPC: 1.65882 cumulative IPC: 1.65929 (Simulation time: 9 hr 14 min 58 sec) 
 Total Blocks : 262144 Invalid Blocks : 13
Heartbeat CPU 5 instructions: 60000000 cycles: 36159987 heartbeat IPC: 1.65881 cumulative IPC: 1.65929 (Simulation time: 9 hr 14 min 58 sec) 
 Total Blocks : 262144 Invalid Blocks : 13
Heartbeat CPU 2 instructions: 60000000 cycles: 36159999 heartbeat IPC: 1.65882 cumulative IPC: 1.65929 (Simulation time: 9 hr 14 min 58 sec) 
 Total Blocks : 262144 Invalid Blocks : 13
Heartbeat CPU 7 instructions: 60000000 cycles: 36160023 heartbeat IPC: 1.65881 cumulative IPC: 1.65929 (Simulation time: 9 hr 14 min 58 sec) 
 Total Blocks : 262144 Invalid Blocks : 13
Heartbeat CPU 6 instructions: 60000000 cycles: 36160083 heartbeat IPC: 1.65881 cumulative IPC: 1.65929 (Simulation time: 9 hr 14 min 58 sec) 
 Total Blocks : 262144 Invalid Blocks : 13
Heartbeat CPU 0 instructions: 60000000 cycles: 36160093 heartbeat IPC: 1.6588 cumulative IPC: 1.65929 (Simulation time: 9 hr 14 min 58 sec) 
 Total Blocks : 262144 Invalid Blocks : 13
Heartbeat CPU 1 instructions: 60000000 cycles: 36160143 heartbeat IPC: 1.65881 cumulative IPC: 1.65929 (Simulation time: 9 hr 14 min 58 sec) 
 Total Blocks : 262144 Invalid Blocks : 13
Heartbeat CPU 4 instructions: 70000002 cycles: 42192213 heartbeat IPC: 1.65774 cumulative IPC: 1.65907 (Simulation time: 10 hr 40 min 55 sec) 
 Total Blocks : 262144 Invalid Blocks : 5
Heartbeat CPU 5 instructions: 70000002 cycles: 42192307 heartbeat IPC: 1.65774 cumulative IPC: 1.65907 (Simulation time: 10 hr 40 min 59 sec) 
 Total Blocks : 262144 Invalid Blocks : 5
Heartbeat CPU 3 instructions: 70000002 cycles: 42192322 heartbeat IPC: 1.65773 cumulative IPC: 1.65907 (Simulation time: 10 hr 40 min 59 sec) 
 Total Blocks : 262144 Invalid Blocks : 5
Heartbeat CPU 2 instructions: 70000002 cycles: 42192361 heartbeat IPC: 1.65773 cumulative IPC: 1.65907 (Simulation time: 10 hr 40 min 59 sec) 
 Total Blocks : 262144 Invalid Blocks : 5
Heartbeat CPU 7 instructions: 70000002 cycles: 42192378 heartbeat IPC: 1.65773 cumulative IPC: 1.65907 (Simulation time: 10 hr 40 min 59 sec) 
 Total Blocks : 262144 Invalid Blocks : 5
Heartbeat CPU 0 instructions: 70000002 cycles: 42192467 heartbeat IPC: 1.65772 cumulative IPC: 1.65906 (Simulation time: 10 hr 40 min 59 sec) 
 Total Blocks : 262144 Invalid Blocks : 5
Heartbeat CPU 6 instructions: 70000002 cycles: 42192480 heartbeat IPC: 1.65772 cumulative IPC: 1.65906 (Simulation time: 10 hr 40 min 59 sec) 
 Total Blocks : 262144 Invalid Blocks : 5
Heartbeat CPU 1 instructions: 70000002 cycles: 42192544 heartbeat IPC: 1.65772 cumulative IPC: 1.65906 (Simulation time: 10 hr 40 min 59 sec) 
 Total Blocks : 262144 Invalid Blocks : 5
Heartbeat CPU 4 instructions: 80000000 cycles: 48216152 heartbeat IPC: 1.66004 cumulative IPC: 1.6592 (Simulation time: 12 hr 0 min 58 sec) 
 Total Blocks : 262144 Invalid Blocks : 2
Heartbeat CPU 3 instructions: 80000000 cycles: 48216234 heartbeat IPC: 1.66005 cumulative IPC: 1.65919 (Simulation time: 12 hr 1 min 3 sec) 
 Total Blocks : 262144 Invalid Blocks : 2
Heartbeat CPU 5 instructions: 80000000 cycles: 48216243 heartbeat IPC: 1.66004 cumulative IPC: 1.65919 (Simulation time: 12 hr 1 min 4 sec) 
 Total Blocks : 262144 Invalid Blocks : 2
Heartbeat CPU 7 instructions: 80000000 cycles: 48216298 heartbeat IPC: 1.66005 cumulative IPC: 1.65919 (Simulation time: 12 hr 1 min 4 sec) 
 Total Blocks : 262144 Invalid Blocks : 2
Heartbeat CPU 2 instructions: 80000000 cycles: 48216321 heartbeat IPC: 1.66004 cumulative IPC: 1.65919 (Simulation time: 12 hr 1 min 4 sec) 
 Total Blocks : 262144 Invalid Blocks : 2
Heartbeat CPU 0 instructions: 80000000 cycles: 48216403 heartbeat IPC: 1.66004 cumulative IPC: 1.65919 (Simulation time: 12 hr 1 min 4 sec) 
 Total Blocks : 262144 Invalid Blocks : 2
Heartbeat CPU 6 instructions: 80000000 cycles: 48216432 heartbeat IPC: 1.66004 cumulative IPC: 1.65919 (Simulation time: 12 hr 1 min 4 sec) 
 Total Blocks : 262144 Invalid Blocks : 2
Heartbeat CPU 1 instructions: 80000000 cycles: 48216483 heartbeat IPC: 1.66004 cumulative IPC: 1.65918 (Simulation time: 12 hr 1 min 4 sec) 
 Total Blocks : 262144 Invalid Blocks : 2
Heartbeat CPU 4 instructions: 90000000 cycles: 54236390 heartbeat IPC: 1.66106 cumulative IPC: 1.6594 (Simulation time: 13 hr 15 min 53 sec) 
 Total Blocks : 262144 Invalid Blocks : 2
Heartbeat CPU 5 instructions: 90000000 cycles: 54236455 heartbeat IPC: 1.66107 cumulative IPC: 1.6594 (Simulation time: 13 hr 15 min 56 sec) 
 Total Blocks : 262144 Invalid Blocks : 2
Heartbeat CPU 3 instructions: 90000000 cycles: 54236470 heartbeat IPC: 1.66106 cumulative IPC: 1.6594 (Simulation time: 13 hr 15 min 56 sec) 
 Total Blocks : 262144 Invalid Blocks : 2
Heartbeat CPU 7 instructions: 90000000 cycles: 54236538 heartbeat IPC: 1.66106 cumulative IPC: 1.6594 (Simulation time: 13 hr 15 min 57 sec) 
 Total Blocks : 262144 Invalid Blocks : 2
Heartbeat CPU 2 instructions: 90000000 cycles: 54236545 heartbeat IPC: 1.66107 cumulative IPC: 1.6594 (Simulation time: 13 hr 15 min 57 sec) 
 Total Blocks : 262144 Invalid Blocks : 2
Heartbeat CPU 0 instructions: 90000000 cycles: 54236654 heartbeat IPC: 1.66106 cumulative IPC: 1.65939 (Simulation time: 13 hr 15 min 57 sec) 
 Total Blocks : 262144 Invalid Blocks : 2
Heartbeat CPU 6 instructions: 90000000 cycles: 54236687 heartbeat IPC: 1.66106 cumulative IPC: 1.65939 (Simulation time: 13 hr 15 min 57 sec) 
 Total Blocks : 262144 Invalid Blocks : 2
Heartbeat CPU 1 instructions: 90000000 cycles: 54236758 heartbeat IPC: 1.66105 cumulative IPC: 1.65939 (Simulation time: 13 hr 15 min 57 sec) 
 Total Blocks : 262144 Invalid Blocks : 2
Heartbeat CPU 4 instructions: 100000000 cycles: 60265654 heartbeat IPC: 1.65858 cumulative IPC: 1.65932 (Simulation time: 14 hr 27 min 58 sec) 
 Total Blocks : 262144 Invalid Blocks : 2
Heartbeat CPU 3 instructions: 100000000 cycles: 60265735 heartbeat IPC: 1.65858 cumulative IPC: 1.65932 (Simulation time: 14 hr 28 min 2 sec) 
 Total Blocks : 262144 Invalid Blocks : 2
Heartbeat CPU 5 instructions: 100000000 cycles: 60265747 heartbeat IPC: 1.65857 cumulative IPC: 1.65932 (Simulation time: 14 hr 28 min 2 sec) 
 Total Blocks : 262144 Invalid Blocks : 2
Heartbeat CPU 7 instructions: 100000000 cycles: 60265804 heartbeat IPC: 1.65858 cumulative IPC: 1.65932 (Simulation time: 14 hr 28 min 2 sec) 
 Total Blocks : 262144 Invalid Blocks : 2
Heartbeat CPU 2 instructions: 100000000 cycles: 60265826 heartbeat IPC: 1.65857 cumulative IPC: 1.65932 (Simulation time: 14 hr 28 min 2 sec) 
 Total Blocks : 262144 Invalid Blocks : 2
Heartbeat CPU 0 instructions: 100000000 cycles: 60265972 heartbeat IPC: 1.65856 cumulative IPC: 1.65931 (Simulation time: 14 hr 28 min 2 sec) 
 Total Blocks : 262144 Invalid Blocks : 2
Heartbeat CPU 6 instructions: 100000000 cycles: 60266002 heartbeat IPC: 1.65856 cumulative IPC: 1.65931 (Simulation time: 14 hr 28 min 2 sec) 
 Total Blocks : 262144 Invalid Blocks : 2
Heartbeat CPU 1 instructions: 100000000 cycles: 60266072 heartbeat IPC: 1.65856 cumulative IPC: 1.65931 (Simulation time: 14 hr 28 min 3 sec) 
 Total Blocks : 262144 Invalid Blocks : 2
Heartbeat CPU 4 instructions: 110000000 cycles: 66285955 heartbeat IPC: 1.66105 cumulative IPC: 1.65948 (Simulation time: 15 hr 37 min 20 sec) 
 Total Blocks : 262144 Invalid Blocks : 1
Heartbeat CPU 3 instructions: 110000000 cycles: 66286043 heartbeat IPC: 1.66104 cumulative IPC: 1.65947 (Simulation time: 15 hr 37 min 25 sec) 
 Total Blocks : 262144 Invalid Blocks : 1
Heartbeat CPU 5 instructions: 110000000 cycles: 66286056 heartbeat IPC: 1.66104 cumulative IPC: 1.65947 (Simulation time: 15 hr 37 min 25 sec) 
 Total Blocks : 262144 Invalid Blocks : 1
Heartbeat CPU 7 instructions: 110000000 cycles: 66286104 heartbeat IPC: 1.66105 cumulative IPC: 1.65947 (Simulation time: 15 hr 37 min 25 sec) 
 Total Blocks : 262144 Invalid Blocks : 1
Heartbeat CPU 2 instructions: 110000000 cycles: 66286144 heartbeat IPC: 1.66104 cumulative IPC: 1.65947 (Simulation time: 15 hr 37 min 25 sec) 
 Total Blocks : 262144 Invalid Blocks : 1
Heartbeat CPU 0 instructions: 110000000 cycles: 66286299 heartbeat IPC: 1.66104 cumulative IPC: 1.65947 (Simulation time: 15 hr 37 min 25 sec) 
 Total Blocks : 262144 Invalid Blocks : 1
Heartbeat CPU 6 instructions: 110000000 cycles: 66286328 heartbeat IPC: 1.66104 cumulative IPC: 1.65947 (Simulation time: 15 hr 37 min 25 sec) 
 Total Blocks : 262144 Invalid Blocks : 1
Heartbeat CPU 1 instructions: 110000000 cycles: 66286420 heartbeat IPC: 1.66103 cumulative IPC: 1.65947 (Simulation time: 15 hr 37 min 26 sec) 
 Total Blocks : 262144 Invalid Blocks : 1
Heartbeat CPU 4 instructions: 120000003 cycles: 72314619 heartbeat IPC: 1.65874 cumulative IPC: 1.65942 (Simulation time: 16 hr 45 min 1 sec) 
 Total Blocks : 262144 Invalid Blocks : 0
Heartbeat CPU 3 instructions: 120000003 cycles: 72314708 heartbeat IPC: 1.65874 cumulative IPC: 1.65941 (Simulation time: 16 hr 45 min 5 sec) 
 Total Blocks : 262144 Invalid Blocks : 0
Heartbeat CPU 5 instructions: 120000003 cycles: 72314739 heartbeat IPC: 1.65874 cumulative IPC: 1.65941 (Simulation time: 16 hr 45 min 5 sec) 
 Total Blocks : 262144 Invalid Blocks : 0
Heartbeat CPU 7 instructions: 120000003 cycles: 72314769 heartbeat IPC: 1.65874 cumulative IPC: 1.65941 (Simulation time: 16 hr 45 min 5 sec) 
 Total Blocks : 262144 Invalid Blocks : 0
Heartbeat CPU 2 instructions: 120000003 cycles: 72314820 heartbeat IPC: 1.65874 cumulative IPC: 1.65941 (Simulation time: 16 hr 45 min 5 sec) 
 Total Blocks : 262144 Invalid Blocks : 0
Heartbeat CPU 0 instructions: 120000003 cycles: 72314999 heartbeat IPC: 1.65873 cumulative IPC: 1.65941 (Simulation time: 16 hr 45 min 6 sec) 
 Total Blocks : 262144 Invalid Blocks : 0
Heartbeat CPU 6 instructions: 120000003 cycles: 72315016 heartbeat IPC: 1.65874 cumulative IPC: 1.65941 (Simulation time: 16 hr 45 min 6 sec) 
 Total Blocks : 262144 Invalid Blocks : 0
Heartbeat CPU 1 instructions: 120000003 cycles: 72315110 heartbeat IPC: 1.65874 cumulative IPC: 1.6594 (Simulation time: 16 hr 45 min 6 sec) 
 Total Blocks : 262144 Invalid Blocks : 0
Heartbeat CPU 4 instructions: 130000001 cycles: 78342465 heartbeat IPC: 1.65897 cumulative IPC: 1.65938 (Simulation time: 17 hr 47 min 52 sec) 
 Total Blocks : 262144 Invalid Blocks : 0
Heartbeat CPU 3 instructions: 130000001 cycles: 78342578 heartbeat IPC: 1.65896 cumulative IPC: 1.65938 (Simulation time: 17 hr 47 min 55 sec) 
 Total Blocks : 262144 Invalid Blocks : 0
Heartbeat CPU 5 instructions: 130000001 cycles: 78342586 heartbeat IPC: 1.65897 cumulative IPC: 1.65938 (Simulation time: 17 hr 47 min 55 sec) 
 Total Blocks : 262144 Invalid Blocks : 0
Heartbeat CPU 7 instructions: 130000001 cycles: 78342631 heartbeat IPC: 1.65896 cumulative IPC: 1.65938 (Simulation time: 17 hr 47 min 55 sec) 
 Total Blocks : 262144 Invalid Blocks : 0
Heartbeat CPU 2 instructions: 130000001 cycles: 78342686 heartbeat IPC: 1.65896 cumulative IPC: 1.65938 (Simulation time: 17 hr 47 min 55 sec) 
 Total Blocks : 262144 Invalid Blocks : 0
Heartbeat CPU 0 instructions: 130000001 cycles: 78342864 heartbeat IPC: 1.65896 cumulative IPC: 1.65937 (Simulation time: 17 hr 47 min 55 sec) 
 Total Blocks : 262144 Invalid Blocks : 0
Heartbeat CPU 6 instructions: 130000001 cycles: 78342881 heartbeat IPC: 1.65896 cumulative IPC: 1.65937 (Simulation time: 17 hr 47 min 55 sec) 
 Total Blocks : 262144 Invalid Blocks : 0
Heartbeat CPU 1 instructions: 130000001 cycles: 78342980 heartbeat IPC: 1.65896 cumulative IPC: 1.65937 (Simulation time: 17 hr 47 min 55 sec) 
 Total Blocks : 262144 Invalid Blocks : 0
Heartbeat CPU 4 instructions: 140000003 cycles: 84359829 heartbeat IPC: 1.66186 cumulative IPC: 1.65956 (Simulation time: 18 hr 48 min 32 sec) 
 Total Blocks : 262144 Invalid Blocks : 0
Heartbeat CPU 5 instructions: 140000003 cycles: 84359941 heartbeat IPC: 1.66186 cumulative IPC: 1.65956 (Simulation time: 18 hr 48 min 35 sec) 
 Total Blocks : 262144 Invalid Blocks : 0
Heartbeat CPU 3 instructions: 140000003 cycles: 84359944 heartbeat IPC: 1.66186 cumulative IPC: 1.65956 (Simulation time: 18 hr 48 min 35 sec) 
 Total Blocks : 262144 Invalid Blocks : 0
Heartbeat CPU 7 instructions: 140000003 cycles: 84360007 heartbeat IPC: 1.66185 cumulative IPC: 1.65955 (Simulation time: 18 hr 48 min 35 sec) 
 Total Blocks : 262144 Invalid Blocks : 0
Heartbeat CPU 2 instructions: 140000003 cycles: 84360055 heartbeat IPC: 1.66186 cumulative IPC: 1.65955 (Simulation time: 18 hr 48 min 35 sec) 
 Total Blocks : 262144 Invalid Blocks : 0
Heartbeat CPU 0 instructions: 140000003 cycles: 84360229 heartbeat IPC: 1.66186 cumulative IPC: 1.65955 (Simulation time: 18 hr 48 min 36 sec) 
 Total Blocks : 262144 Invalid Blocks : 0
Heartbeat CPU 6 instructions: 140000003 cycles: 84360294 heartbeat IPC: 1.66184 cumulative IPC: 1.65955 (Simulation time: 18 hr 48 min 36 sec) 
 Total Blocks : 262144 Invalid Blocks : 0
Heartbeat CPU 1 instructions: 140000003 cycles: 84360381 heartbeat IPC: 1.66185 cumulative IPC: 1.65955 (Simulation time: 18 hr 48 min 36 sec) 
 Total Blocks : 262144 Invalid Blocks : 0
Heartbeat CPU 4 instructions: 150000001 cycles: 90389433 heartbeat IPC: 1.65848 cumulative IPC: 1.65949 (Simulation time: 19 hr 47 min 20 sec) 
 Total Blocks : 262144 Invalid Blocks : 0
Heartbeat CPU 5 instructions: 150000001 cycles: 90389540 heartbeat IPC: 1.65848 cumulative IPC: 1.65948 (Simulation time: 19 hr 47 min 23 sec) 
 Total Blocks : 262144 Invalid Blocks : 0
Heartbeat CPU 3 instructions: 150000001 cycles: 90389581 heartbeat IPC: 1.65847 cumulative IPC: 1.65948 (Simulation time: 19 hr 47 min 23 sec) 
 Total Blocks : 262144 Invalid Blocks : 0
Heartbeat CPU 7 instructions: 150000001 cycles: 90389622 heartbeat IPC: 1.65848 cumulative IPC: 1.65948 (Simulation time: 19 hr 47 min 23 sec) 
 Total Blocks : 262144 Invalid Blocks : 0
Heartbeat CPU 2 instructions: 150000001 cycles: 90389694 heartbeat IPC: 1.65847 cumulative IPC: 1.65948 (Simulation time: 19 hr 47 min 23 sec) 
 Total Blocks : 262144 Invalid Blocks : 0
Heartbeat CPU 0 instructions: 150000001 cycles: 90389883 heartbeat IPC: 1.65847 cumulative IPC: 1.65948 (Simulation time: 19 hr 47 min 23 sec) 
 Total Blocks : 262144 Invalid Blocks : 0
Heartbeat CPU 6 instructions: 150000001 cycles: 90389919 heartbeat IPC: 1.65848 cumulative IPC: 1.65948 (Simulation time: 19 hr 47 min 23 sec) 
 Total Blocks : 262144 Invalid Blocks : 0
Heartbeat CPU 1 instructions: 150000001 cycles: 90390034 heartbeat IPC: 1.65847 cumulative IPC: 1.65947 (Simulation time: 19 hr 47 min 23 sec) 
 Total Blocks : 262144 Invalid Blocks : 0
Heartbeat CPU 4 instructions: 160000001 cycles: 96416644 heartbeat IPC: 1.65914 cumulative IPC: 1.65946 (Simulation time: 20 hr 47 min 34 sec) 
 Total Blocks : 262144 Invalid Blocks : 0
Heartbeat CPU 5 instructions: 160000001 cycles: 96416786 heartbeat IPC: 1.65913 cumulative IPC: 1.65946 (Simulation time: 20 hr 47 min 36 sec) 
 Total Blocks : 262144 Invalid Blocks : 0
Heartbeat CPU 3 instructions: 160000001 cycles: 96416813 heartbeat IPC: 1.65914 cumulative IPC: 1.65946 (Simulation time: 20 hr 47 min 36 sec) 
 Total Blocks : 262144 Invalid Blocks : 0
Heartbeat CPU 7 instructions: 160000001 cycles: 96416860 heartbeat IPC: 1.65913 cumulative IPC: 1.65946 (Simulation time: 20 hr 47 min 36 sec) 
 Total Blocks : 262144 Invalid Blocks : 0
Heartbeat CPU 2 instructions: 160000001 cycles: 96416917 heartbeat IPC: 1.65914 cumulative IPC: 1.65946 (Simulation time: 20 hr 47 min 36 sec) 
 Total Blocks : 262144 Invalid Blocks : 0
Heartbeat CPU 0 instructions: 160000001 cycles: 96417145 heartbeat IPC: 1.65913 cumulative IPC: 1.65946 (Simulation time: 20 hr 47 min 36 sec) 
 Total Blocks : 262144 Invalid Blocks : 0
Heartbeat CPU 6 instructions: 160000001 cycles: 96417187 heartbeat IPC: 1.65913 cumulative IPC: 1.65946 (Simulation time: 20 hr 47 min 36 sec) 
 Total Blocks : 262144 Invalid Blocks : 0
Heartbeat CPU 1 instructions: 160000001 cycles: 96417263 heartbeat IPC: 1.65914 cumulative IPC: 1.65945 (Simulation time: 20 hr 47 min 37 sec) 
 Total Blocks : 262144 Invalid Blocks : 0
Heartbeat CPU 4 instructions: 170000003 cycles: 102436411 heartbeat IPC: 1.66119 cumulative IPC: 1.65957 (Simulation time: 21 hr 45 min 26 sec) 
 Total Blocks : 262144 Invalid Blocks : 0
Heartbeat CPU 5 instructions: 170000003 cycles: 102436567 heartbeat IPC: 1.66119 cumulative IPC: 1.65956 (Simulation time: 21 hr 45 min 28 sec) 
 Total Blocks : 262144 Invalid Blocks : 0
Heartbeat CPU 3 instructions: 170000003 cycles: 102436599 heartbeat IPC: 1.66119 cumulative IPC: 1.65956 (Simulation time: 21 hr 45 min 28 sec) 
 Total Blocks : 262144 Invalid Blocks : 0
Heartbeat CPU 7 instructions: 170000003 cycles: 102436642 heartbeat IPC: 1.66119 cumulative IPC: 1.65956 (Simulation time: 21 hr 45 min 28 sec) 
 Total Blocks : 262144 Invalid Blocks : 0
Heartbeat CPU 2 instructions: 170000003 cycles: 102436702 heartbeat IPC: 1.66119 cumulative IPC: 1.65956 (Simulation time: 21 hr 45 min 29 sec) 
 Total Blocks : 262144 Invalid Blocks : 0
Heartbeat CPU 0 instructions: 170000003 cycles: 102436957 heartbeat IPC: 1.66118 cumulative IPC: 1.65956 (Simulation time: 21 hr 45 min 29 sec) 
 Total Blocks : 262144 Invalid Blocks : 0
Heartbeat CPU 6 instructions: 170000003 cycles: 102437016 heartbeat IPC: 1.66118 cumulative IPC: 1.65956 (Simulation time: 21 hr 45 min 29 sec) 
 Total Blocks : 262144 Invalid Blocks : 0
Heartbeat CPU 1 instructions: 170000003 cycles: 102437110 heartbeat IPC: 1.66117 cumulative IPC: 1.65955 (Simulation time: 21 hr 45 min 29 sec) 
 Total Blocks : 262144 Invalid Blocks : 0
Heartbeat CPU 4 instructions: 180000001 cycles: 108461884 heartbeat IPC: 1.65962 cumulative IPC: 1.65957 (Simulation time: 22 hr 40 min 10 sec) 
 Total Blocks : 262144 Invalid Blocks : 0
Heartbeat CPU 5 instructions: 180000001 cycles: 108462069 heartbeat IPC: 1.65961 cumulative IPC: 1.65957 (Simulation time: 22 hr 40 min 12 sec) 
 Total Blocks : 262144 Invalid Blocks : 0
Heartbeat CPU 3 instructions: 180000001 cycles: 108462093 heartbeat IPC: 1.65961 cumulative IPC: 1.65957 (Simulation time: 22 hr 40 min 12 sec) 
 Total Blocks : 262144 Invalid Blocks : 0
Heartbeat CPU 7 instructions: 180000001 cycles: 108462120 heartbeat IPC: 1.65962 cumulative IPC: 1.65957 (Simulation time: 22 hr 40 min 12 sec) 
 Total Blocks : 262144 Invalid Blocks : 0
Heartbeat CPU 2 instructions: 180000001 cycles: 108462223 heartbeat IPC: 1.65961 cumulative IPC: 1.65956 (Simulation time: 22 hr 40 min 12 sec) 
 Total Blocks : 262144 Invalid Blocks : 0
Heartbeat CPU 0 instructions: 180000001 cycles: 108462445 heartbeat IPC: 1.65962 cumulative IPC: 1.65956 (Simulation time: 22 hr 40 min 12 sec) 
 Total Blocks : 262144 Invalid Blocks : 0
Heartbeat CPU 6 instructions: 180000001 cycles: 108462520 heartbeat IPC: 1.65961 cumulative IPC: 1.65956 (Simulation time: 22 hr 40 min 12 sec) 
 Total Blocks : 262144 Invalid Blocks : 0
Heartbeat CPU 1 instructions: 180000001 cycles: 108462599 heartbeat IPC: 1.65962 cumulative IPC: 1.65956 (Simulation time: 22 hr 40 min 12 sec) 
 Total Blocks : 262144 Invalid Blocks : 0
Heartbeat CPU 4 instructions: 190000001 cycles: 114488905 heartbeat IPC: 1.65919 cumulative IPC: 1.65955 (Simulation time: 23 hr 33 min 50 sec) 
 Total Blocks : 262144 Invalid Blocks : 0
Heartbeat CPU 5 instructions: 190000001 cycles: 114489114 heartbeat IPC: 1.65919 cumulative IPC: 1.65955 (Simulation time: 23 hr 33 min 53 sec) 
 Total Blocks : 262144 Invalid Blocks : 0
Heartbeat CPU 3 instructions: 190000001 cycles: 114489124 heartbeat IPC: 1.65919 cumulative IPC: 1.65955 (Simulation time: 23 hr 33 min 53 sec) 
 Total Blocks : 262144 Invalid Blocks : 0
Heartbeat CPU 7 instructions: 190000001 cycles: 114489176 heartbeat IPC: 1.65918 cumulative IPC: 1.65955 (Simulation time: 23 hr 33 min 53 sec) 
 Total Blocks : 262144 Invalid Blocks : 0
Heartbeat CPU 2 instructions: 190000001 cycles: 114489252 heartbeat IPC: 1.65919 cumulative IPC: 1.65954 (Simulation time: 23 hr 33 min 53 sec) 
 Total Blocks : 262144 Invalid Blocks : 0
Heartbeat CPU 0 instructions: 190000001 cycles: 114489500 heartbeat IPC: 1.65919 cumulative IPC: 1.65954 (Simulation time: 23 hr 33 min 53 sec) 
 Total Blocks : 262144 Invalid Blocks : 0
Heartbeat CPU 6 instructions: 190000001 cycles: 114489555 heartbeat IPC: 1.65919 cumulative IPC: 1.65954 (Simulation time: 23 hr 33 min 53 sec) 
 Total Blocks : 262144 Invalid Blocks : 0
Heartbeat CPU 1 instructions: 190000001 cycles: 114489685 heartbeat IPC: 1.65918 cumulative IPC: 1.65954 (Simulation time: 23 hr 33 min 53 sec) 
 Total Blocks : 262144 Invalid Blocks : 0
Heartbeat CPU 4 instructions: 200000003 cycles: 120512527 heartbeat IPC: 1.66013 cumulative IPC: 1.65958 (Simulation time: 24 hr 26 min 52 sec) 
 Total Blocks : 262144 Invalid Blocks : 0
Heartbeat CPU 5 instructions: 200000003 cycles: 120512716 heartbeat IPC: 1.66014 cumulative IPC: 1.65958 (Simulation time: 24 hr 26 min 54 sec) 
 Total Blocks : 262144 Invalid Blocks : 0
Heartbeat CPU 3 instructions: 200000003 cycles: 120512740 heartbeat IPC: 1.66013 cumulative IPC: 1.65958 (Simulation time: 24 hr 26 min 54 sec) 
 Total Blocks : 262144 Invalid Blocks : 0
Heartbeat CPU 7 instructions: 200000003 cycles: 120512794 heartbeat IPC: 1.66013 cumulative IPC: 1.65957 (Simulation time: 24 hr 26 min 54 sec) 
 Total Blocks : 262144 Invalid Blocks : 0
Heartbeat CPU 2 instructions: 200000003 cycles: 120512904 heartbeat IPC: 1.66012 cumulative IPC: 1.65957 (Simulation time: 24 hr 26 min 54 sec) 
 Total Blocks : 262144 Invalid Blocks : 0
Heartbeat CPU 0 instructions: 200000003 cycles: 120513125 heartbeat IPC: 1.66013 cumulative IPC: 1.65957 (Simulation time: 24 hr 26 min 54 sec) 
 Total Blocks : 262144 Invalid Blocks : 0
Heartbeat CPU 6 instructions: 200000003 cycles: 120513212 heartbeat IPC: 1.66012 cumulative IPC: 1.65957 (Simulation time: 24 hr 26 min 54 sec) 
 Total Blocks : 262144 Invalid Blocks : 0
Heartbeat CPU 1 instructions: 200000003 cycles: 120513338 heartbeat IPC: 1.66012 cumulative IPC: 1.65957 (Simulation time: 24 hr 26 min 54 sec) 
 Total Blocks : 262144 Invalid Blocks : 0

Warmup complete CPU 0 instructions: 200000355 cycles: 120513338 (Simulation time: 24 hr 26 min 54 sec) 
Warmup complete CPU 1 instructions: 200000003 cycles: 120513338 (Simulation time: 24 hr 26 min 54 sec) 
Warmup complete CPU 2 instructions: 200000689 cycles: 120513337 (Simulation time: 24 hr 26 min 54 sec) 
Warmup complete CPU 3 instructions: 200000978 cycles: 120513337 (Simulation time: 24 hr 26 min 54 sec) 
Warmup complete CPU 4 instructions: 200001332 cycles: 120513337 (Simulation time: 24 hr 26 min 54 sec) 
Warmup complete CPU 5 instructions: 200001008 cycles: 120513337 (Simulation time: 24 hr 26 min 54 sec) 
Warmup complete CPU 6 instructions: 200000191 cycles: 120513337 (Simulation time: 24 hr 26 min 54 sec) 
Warmup complete CPU 7 instructions: 200000871 cycles: 120513337 (Simulation time: 24 hr 26 min 54 sec) 

Heartbeat CPU 4 instructions: 210000003 cycles: 135457545 heartbeat IPC: 0.669119 cumulative IPC: 0.669067 (Simulation time: 25 hr 30 min 28 sec) 
 Total Blocks : 262144 Invalid Blocks : 0
Heartbeat CPU 3 instructions: 210000003 cycles: 135459442 heartbeat IPC: 0.669044 cumulative IPC: 0.669005 (Simulation time: 25 hr 30 min 31 sec) 
 Total Blocks : 262144 Invalid Blocks : 0
Heartbeat CPU 7 instructions: 210000003 cycles: 135460113 heartbeat IPC: 0.669016 cumulative IPC: 0.668983 (Simulation time: 25 hr 30 min 31 sec) 
 Total Blocks : 262144 Invalid Blocks : 0
Heartbeat CPU 5 instructions: 210000003 cycles: 135476664 heartbeat IPC: 0.668273 cumulative IPC: 0.668233 (Simulation time: 25 hr 30 min 33 sec) 
 Total Blocks : 262144 Invalid Blocks : 0
Heartbeat CPU 2 instructions: 210000003 cycles: 135477500 heartbeat IPC: 0.668244 cumulative IPC: 0.668217 (Simulation time: 25 hr 30 min 33 sec) 
 Total Blocks : 262144 Invalid Blocks : 0
Heartbeat CPU 1 instructions: 210000003 cycles: 135619739 heartbeat IPC: 0.661971 cumulative IPC: 0.661971 (Simulation time: 25 hr 31 min 6 sec) 
 Total Blocks : 262144 Invalid Blocks : 0
Heartbeat CPU 0 instructions: 210000003 cycles: 135774319 heartbeat IPC: 0.655257 cumulative IPC: 0.655243 (Simulation time: 25 hr 31 min 34 sec) 
 Total Blocks : 262144 Invalid Blocks : 0
Heartbeat CPU 6 instructions: 210000003 cycles: 135920781 heartbeat IPC: 0.649032 cumulative IPC: 0.649025 (Simulation time: 25 hr 32 min 1 sec) 
 Total Blocks : 262144 Invalid Blocks : 0
Heartbeat CPU 7 instructions: 220000000 cycles: 151254412 heartbeat IPC: 0.63314 cumulative IPC: 0.650567 (Simulation time: 26 hr 29 min 6 sec) 
 Total Blocks : 262144 Invalid Blocks : 0
Heartbeat CPU 4 instructions: 220000000 cycles: 151254565 heartbeat IPC: 0.633031 cumulative IPC: 0.650549 (Simulation time: 26 hr 29 min 7 sec) 
 Total Blocks : 262144 Invalid Blocks : 0
Heartbeat CPU 3 instructions: 220000000 cycles: 151266154 heartbeat IPC: 0.632642 cumulative IPC: 0.650315 (Simulation time: 26 hr 29 min 9 sec) 
 Total Blocks : 262144 Invalid Blocks : 0
Heartbeat CPU 5 instructions: 220000000 cycles: 151362812 heartbeat IPC: 0.629479 cumulative IPC: 0.648277 (Simulation time: 26 hr 29 min 25 sec) 
 Total Blocks : 262144 Invalid Blocks : 0
Heartbeat CPU 2 instructions: 220000000 cycles: 151419008 heartbeat IPC: 0.627293 cumulative IPC: 0.647108 (Simulation time: 26 hr 29 min 39 sec) 
 Total Blocks : 262144 Invalid Blocks : 0
Heartbeat CPU 1 instructions: 220000000 cycles: 151561464 heartbeat IPC: 0.627285 cumulative IPC: 0.644161 (Simulation time: 26 hr 30 min 4 sec) 
 Total Blocks : 262144 Invalid Blocks : 0
Heartbeat CPU 0 instructions: 220000000 cycles: 151742828 heartbeat IPC: 0.626232 cumulative IPC: 0.640409 (Simulation time: 26 hr 30 min 55 sec) 
 Total Blocks : 262144 Invalid Blocks : 0
Heartbeat CPU 6 instructions: 220000000 cycles: 151914925 heartbeat IPC: 0.625229 cumulative IPC: 0.636904 (Simulation time: 26 hr 31 min 22 sec) 
 Total Blocks : 262144 Invalid Blocks : 0
Heartbeat CPU 4 instructions: 230000000 cycles: 168013189 heartbeat IPC: 0.596708 cumulative IPC: 0.631553 (Simulation time: 27 hr 20 min 28 sec) 
 Total Blocks : 262144 Invalid Blocks : 0
Heartbeat CPU 7 instructions: 230000000 cycles: 168013240 heartbeat IPC: 0.5967 cumulative IPC: 0.631562 (Simulation time: 27 hr 20 min 30 sec) 
 Total Blocks : 262144 Invalid Blocks : 0
Heartbeat CPU 3 instructions: 230000000 cycles: 168022731 heartbeat IPC: 0.596781 cumulative IPC: 0.631433 (Simulation time: 27 hr 20 min 32 sec) 
 Total Blocks : 262144 Invalid Blocks : 0
Heartbeat CPU 5 instructions: 230000000 cycles: 168121461 heartbeat IPC: 0.596707 cumulative IPC: 0.630123 (Simulation time: 27 hr 20 min 49 sec) 
 Total Blocks : 262144 Invalid Blocks : 0
Heartbeat CPU 2 instructions: 230000000 cycles: 168176580 heartbeat IPC: 0.596745 cumulative IPC: 0.629401 (Simulation time: 27 hr 21 min 18 sec) 
 Total Blocks : 262144 Invalid Blocks : 0
Heartbeat CPU 1 instructions: 230000000 cycles: 168317515 heartbeat IPC: 0.596799 cumulative IPC: 0.62756 (Simulation time: 27 hr 21 min 42 sec) 
 Total Blocks : 262144 Invalid Blocks : 0
Heartbeat CPU 0 instructions: 230000000 cycles: 168500511 heartbeat IPC: 0.596741 cumulative IPC: 0.62516 (Simulation time: 27 hr 22 min 21 sec) 
 Total Blocks : 262144 Invalid Blocks : 0
Heartbeat CPU 6 instructions: 230000000 cycles: 168672102 heartbeat IPC: 0.596759 cumulative IPC: 0.622936 (Simulation time: 27 hr 22 min 56 sec) 
 Total Blocks : 262144 Invalid Blocks : 0
Heartbeat CPU 4 instructions: 240000002 cycles: 184718392 heartbeat IPC: 0.598616 cumulative IPC: 0.622983 (Simulation time: 28 hr 7 min 54 sec) 
 Total Blocks : 262144 Invalid Blocks : 0
Heartbeat CPU 7 instructions: 240000002 cycles: 184718494 heartbeat IPC: 0.598614 cumulative IPC: 0.622989 (Simulation time: 28 hr 7 min 56 sec) 
 Total Blocks : 262144 Invalid Blocks : 0
Heartbeat CPU 3 instructions: 240000002 cycles: 184727399 heartbeat IPC: 0.598635 cumulative IPC: 0.622901 (Simulation time: 28 hr 7 min 59 sec) 
 Total Blocks : 262144 Invalid Blocks : 0
Heartbeat CPU 5 instructions: 240000002 cycles: 184826257 heartbeat IPC: 0.598631 cumulative IPC: 0.621943 (Simulation time: 28 hr 8 min 22 sec) 
 Total Blocks : 262144 Invalid Blocks : 0
Heartbeat CPU 2 instructions: 240000002 cycles: 184883874 heartbeat IPC: 0.598541 cumulative IPC: 0.621392 (Simulation time: 28 hr 8 min 33 sec) 
 Total Blocks : 262144 Invalid Blocks : 0
Heartbeat CPU 1 instructions: 240000002 cycles: 185024110 heartbeat IPC: 0.598566 cumulative IPC: 0.620051 (Simulation time: 28 hr 8 min 55 sec) 
 Total Blocks : 262144 Invalid Blocks : 0
Heartbeat CPU 0 instructions: 240000002 cycles: 185206912 heartbeat IPC: 0.598573 cumulative IPC: 0.618294 (Simulation time: 28 hr 9 min 35 sec) 
 Total Blocks : 262144 Invalid Blocks : 0
Heartbeat CPU 6 instructions: 240000002 cycles: 185376059 heartbeat IPC: 0.598661 cumulative IPC: 0.616684 (Simulation time: 28 hr 10 min 0 sec) 
 Total Blocks : 262144 Invalid Blocks : 0
Heartbeat CPU 4 instructions: 250000001 cycles: 201402873 heartbeat IPC: 0.599359 cumulative IPC: 0.61811 (Simulation time: 28 hr 52 min 53 sec) 
 Total Blocks : 262144 Invalid Blocks : 0
Heartbeat CPU 7 instructions: 250000001 cycles: 201403657 heartbeat IPC: 0.599335 cumulative IPC: 0.61811 (Simulation time: 28 hr 52 min 56 sec) 
 Total Blocks : 262144 Invalid Blocks : 0
Heartbeat CPU 3 instructions: 250000001 cycles: 201409457 heartbeat IPC: 0.599446 cumulative IPC: 0.618065 (Simulation time: 28 hr 52 min 57 sec) 
 Total Blocks : 262144 Invalid Blocks : 0
Heartbeat CPU 5 instructions: 250000001 cycles: 201509230 heartbeat IPC: 0.599414 cumulative IPC: 0.617303 (Simulation time: 28 hr 53 min 12 sec) 
 Total Blocks : 262144 Invalid Blocks : 0
Heartbeat CPU 2 instructions: 250000001 cycles: 201566998 heartbeat IPC: 0.599408 cumulative IPC: 0.616867 (Simulation time: 28 hr 53 min 23 sec) 
 Total Blocks : 262144 Invalid Blocks : 0
Heartbeat CPU 1 instructions: 250000001 cycles: 201708213 heartbeat IPC: 0.599373 cumulative IPC: 0.615802 (Simulation time: 28 hr 53 min 45 sec) 
 Total Blocks : 262144 Invalid Blocks : 0
Heartbeat CPU 0 instructions: 250000001 cycles: 201891580 heartbeat IPC: 0.599353 cumulative IPC: 0.614411 (Simulation time: 28 hr 54 min 27 sec) 
 Total Blocks : 262144 Invalid Blocks : 0
Heartbeat CPU 6 instructions: 250000001 cycles: 202058435 heartbeat IPC: 0.599435 cumulative IPC: 0.613155 (Simulation time: 28 hr 54 min 54 sec) 
 Total Blocks : 262144 Invalid Blocks : 0
Heartbeat CPU 4 instructions: 260000003 cycles: 218078592 heartbeat IPC: 0.599674 cumulative IPC: 0.614959 (Simulation time: 29 hr 41 min 15 sec) 
 Total Blocks : 262144 Invalid Blocks : 0
Heartbeat CPU 7 instructions: 260000003 cycles: 218078694 heartbeat IPC: 0.599699 cumulative IPC: 0.614963 (Simulation time: 29 hr 41 min 17 sec) 
 Total Blocks : 262144 Invalid Blocks : 0
Heartbeat CPU 3 instructions: 260000003 cycles: 218082093 heartbeat IPC: 0.599785 cumulative IPC: 0.614941 (Simulation time: 29 hr 41 min 18 sec) 
 Total Blocks : 262144 Invalid Blocks : 0
Heartbeat CPU 5 instructions: 260000003 cycles: 218196076 heartbeat IPC: 0.599275 cumulative IPC: 0.614223 (Simulation time: 29 hr 41 min 35 sec) 
 Total Blocks : 262144 Invalid Blocks : 0
Heartbeat CPU 2 instructions: 260000003 cycles: 218239868 heartbeat IPC: 0.599777 cumulative IPC: 0.613951 (Simulation time: 29 hr 41 min 58 sec) 
 Total Blocks : 262144 Invalid Blocks : 0
Heartbeat CPU 1 instructions: 260000003 cycles: 218381034 heartbeat IPC: 0.599779 cumulative IPC: 0.613073 (Simulation time: 29 hr 42 min 20 sec) 
 Total Blocks : 262144 Invalid Blocks : 0
Heartbeat CPU 0 instructions: 260000003 cycles: 218577375 heartbeat IPC: 0.599312 cumulative IPC: 0.611841 (Simulation time: 29 hr 42 min 50 sec) 
 Total Blocks : 262144 Invalid Blocks : 0
Heartbeat CPU 6 instructions: 260000003 cycles: 218735557 heartbeat IPC: 0.599624 cumulative IPC: 0.610858 (Simulation time: 29 hr 43 min 29 sec) 
 Total Blocks : 262144 Invalid Blocks : 0
Heartbeat CPU 3 instructions: 270000002 cycles: 234752790 heartbeat IPC: 0.599855 cumulative IPC: 0.61274 (Simulation time: 30 hr 30 min 25 sec) 
 Total Blocks : 262144 Invalid Blocks : 0
Heartbeat CPU 4 instructions: 270000002 cycles: 234752865 heartbeat IPC: 0.599726 cumulative IPC: 0.612736 (Simulation time: 30 hr 30 min 35 sec) 
 Total Blocks : 262144 Invalid Blocks : 0
Heartbeat CPU 7 instructions: 270000002 cycles: 234799046 heartbeat IPC: 0.598073 cumulative IPC: 0.612492 (Simulation time: 30 hr 30 min 51 sec) 
 Total Blocks : 262144 Invalid Blocks : 0
Heartbeat CPU 5 instructions: 270000002 cycles: 234879361 heartbeat IPC: 0.599402 cumulative IPC: 0.612061 (Simulation time: 30 hr 31 min 6 sec) 
 Total Blocks : 262144 Invalid Blocks : 0
Heartbeat CPU 2 instructions: 270000002 cycles: 234909912 heartbeat IPC: 0.599878 cumulative IPC: 0.6119 (Simulation time: 30 hr 31 min 14 sec) 
 Total Blocks : 262144 Invalid Blocks : 0
Heartbeat CPU 1 instructions: 270000002 cycles: 235055402 heartbeat IPC: 0.599723 cumulative IPC: 0.611129 (Simulation time: 30 hr 31 min 38 sec) 
 Total Blocks : 262144 Invalid Blocks : 0
Heartbeat CPU 0 instructions: 270000002 cycles: 235323151 heartbeat IPC: 0.597165 cumulative IPC: 0.609701 (Simulation time: 30 hr 32 min 33 sec) 
 Total Blocks : 262144 Invalid Blocks : 0
Heartbeat CPU 6 instructions: 270000002 cycles: 235408693 heartbeat IPC: 0.599767 cumulative IPC: 0.609248 (Simulation time: 30 hr 32 min 49 sec) 
 Total Blocks : 262144 Invalid Blocks : 0
Heartbeat CPU 3 instructions: 280000001 cycles: 251423376 heartbeat IPC: 0.599859 cumulative IPC: 0.611099 (Simulation time: 31 hr 20 min 18 sec) 
 Total Blocks : 262144 Invalid Blocks : 0
Heartbeat CPU 4 instructions: 280000001 cycles: 251433882 heartbeat IPC: 0.599484 cumulative IPC: 0.611048 (Simulation time: 31 hr 20 min 21 sec) 
 Total Blocks : 262144 Invalid Blocks : 0
Heartbeat CPU 7 instructions: 280000001 cycles: 251536433 heartbeat IPC: 0.597465 cumulative IPC: 0.610573 (Simulation time: 31 hr 20 min 51 sec) 
 Total Blocks : 262144 Invalid Blocks : 0
Heartbeat CPU 5 instructions: 280000001 cycles: 251564408 heartbeat IPC: 0.599339 cumulative IPC: 0.610441 (Simulation time: 31 hr 20 min 58 sec) 
 Total Blocks : 262144 Invalid Blocks : 0
Heartbeat CPU 2 instructions: 280000001 cycles: 251601531 heartbeat IPC: 0.599103 cumulative IPC: 0.610271 (Simulation time: 31 hr 21 min 3 sec) 
 Total Blocks : 262144 Invalid Blocks : 0
Heartbeat CPU 1 instructions: 280000001 cycles: 251762071 heartbeat IPC: 0.598563 cumulative IPC: 0.60953 (Simulation time: 31 hr 21 min 28 sec) 
 Total Blocks : 262144 Invalid Blocks : 0
Heartbeat CPU 0 instructions: 280000001 cycles: 252074075 heartbeat IPC: 0.596982 cumulative IPC: 0.608081 (Simulation time: 31 hr 22 min 32 sec) 
 Total Blocks : 262144 Invalid Blocks : 0
Heartbeat CPU 6 instructions: 280000001 cycles: 252100446 heartbeat IPC: 0.599098 cumulative IPC: 0.607961 (Simulation time: 31 hr 22 min 38 sec) 
 Total Blocks : 262144 Invalid Blocks : 0
Heartbeat CPU 3 instructions: 290000000 cycles: 268085665 heartbeat IPC: 0.600158 cumulative IPC: 0.609864 (Simulation time: 32 hr 11 min 18 sec) 
 Total Blocks : 262144 Invalid Blocks : 0
Heartbeat CPU 4 instructions: 290000000 cycles: 268112636 heartbeat IPC: 0.599565 cumulative IPC: 0.60975 (Simulation time: 32 hr 11 min 24 sec) 
 Total Blocks : 262144 Invalid Blocks : 0
Heartbeat CPU 5 instructions: 290000000 cycles: 268285816 heartbeat IPC: 0.598036 cumulative IPC: 0.609038 (Simulation time: 32 hr 12 min 5 sec) 
 Total Blocks : 262144 Invalid Blocks : 0
Heartbeat CPU 7 instructions: 290000000 cycles: 268289080 heartbeat IPC: 0.596921 cumulative IPC: 0.609025 (Simulation time: 32 hr 12 min 8 sec) 
 Total Blocks : 262144 Invalid Blocks : 0
Heartbeat CPU 2 instructions: 290000000 cycles: 268329690 heartbeat IPC: 0.597794 cumulative IPC: 0.608859 (Simulation time: 32 hr 12 min 13 sec) 
 Total Blocks : 262144 Invalid Blocks : 0
Heartbeat CPU 1 instructions: 290000000 cycles: 268471437 heartbeat IPC: 0.598467 cumulative IPC: 0.60828 (Simulation time: 32 hr 12 min 34 sec) 
 Total Blocks : 262144 Invalid Blocks : 0
Heartbeat CPU 0 instructions: 290000000 cycles: 268815940 heartbeat IPC: 0.597305 cumulative IPC: 0.606865 (Simulation time: 32 hr 13 min 39 sec) 
 Total Blocks : 262144 Invalid Blocks : 0
Heartbeat CPU 6 instructions: 290000000 cycles: 268825305 heartbeat IPC: 0.597912 cumulative IPC: 0.606828 (Simulation time: 32 hr 13 min 42 sec) 
 Total Blocks : 262144 Invalid Blocks : 0
Heartbeat CPU 3 instructions: 300000000 cycles: 284817917 heartbeat IPC: 0.597648 cumulative IPC: 0.60862 (Simulation time: 33 hr 2 min 21 sec) 
 Total Blocks : 262144 Invalid Blocks : 0
Heartbeat CPU 4 instructions: 300000000 cycles: 284865778 heartbeat IPC: 0.596903 cumulative IPC: 0.60844 (Simulation time: 33 hr 2 min 29 sec) 
 Total Blocks : 262144 Invalid Blocks : 0
Heartbeat CPU 5 instructions: 300000000 cycles: 285016516 heartbeat IPC: 0.597704 cumulative IPC: 0.607885 (Simulation time: 33 hr 3 min 13 sec) 
 Total Blocks : 262144 Invalid Blocks : 0
Heartbeat CPU 7 instructions: 300000000 cycles: 285057489 heartbeat IPC: 0.596359 cumulative IPC: 0.607734 (Simulation time: 33 hr 3 min 20 sec) 
 Total Blocks : 262144 Invalid Blocks : 0
Heartbeat CPU 2 instructions: 300000000 cycles: 285076805 heartbeat IPC: 0.597118 cumulative IPC: 0.607664 (Simulation time: 33 hr 3 min 25 sec) 
 Total Blocks : 262144 Invalid Blocks : 0
Heartbeat CPU 1 instructions: 300000000 cycles: 285209191 heartbeat IPC: 0.597452 cumulative IPC: 0.60718 (Simulation time: 33 hr 3 min 44 sec) 
 Total Blocks : 262144 Invalid Blocks : 0
Heartbeat CPU 6 instructions: 300000000 cycles: 285568828 heartbeat IPC: 0.597246 cumulative IPC: 0.605856 (Simulation time: 33 hr 4 min 55 sec) 
 Total Blocks : 262144 Invalid Blocks : 0
Heartbeat CPU 0 instructions: 300000000 cycles: 285571600 heartbeat IPC: 0.596813 cumulative IPC: 0.605845 (Simulation time: 33 hr 4 min 57 sec) 
 Total Blocks : 262144 Invalid Blocks : 0
Heartbeat CPU 3 instructions: 310000003 cycles: 301605432 heartbeat IPC: 0.595681 cumulative IPC: 0.60742 (Simulation time: 33 hr 54 min 45 sec) 
 Total Blocks : 262144 Invalid Blocks : 0
Heartbeat CPU 4 instructions: 310000003 cycles: 301610267 heartbeat IPC: 0.597212 cumulative IPC: 0.607402 (Simulation time: 33 hr 54 min 48 sec) 
 Total Blocks : 262144 Invalid Blocks : 0
Heartbeat CPU 5 instructions: 310000003 cycles: 301741687 heartbeat IPC: 0.597901 cumulative IPC: 0.606964 (Simulation time: 33 hr 55 min 7 sec) 
 Total Blocks : 262144 Invalid Blocks : 0
Heartbeat CPU 2 instructions: 310000003 cycles: 301808744 heartbeat IPC: 0.59766 cumulative IPC: 0.606741 (Simulation time: 33 hr 55 min 19 sec) 
 Total Blocks : 262144 Invalid Blocks : 0
Heartbeat CPU 7 instructions: 310000003 cycles: 301820000 heartbeat IPC: 0.59657 cumulative IPC: 0.606702 (Simulation time: 33 hr 55 min 21 sec) 
 Total Blocks : 262144 Invalid Blocks : 0
Heartbeat CPU 1 instructions: 310000003 cycles: 301972078 heartbeat IPC: 0.596556 cumulative IPC: 0.606198 (Simulation time: 33 hr 55 min 58 sec) 
 Total Blocks : 262144 Invalid Blocks : 0
Heartbeat CPU 6 instructions: 310000003 cycles: 302301613 heartbeat IPC: 0.597629 cumulative IPC: 0.605098 (Simulation time: 33 hr 57 min 8 sec) 
 Total Blocks : 262144 Invalid Blocks : 0
Heartbeat CPU 0 instructions: 310000003 cycles: 302309402 heartbeat IPC: 0.59745 cumulative IPC: 0.605072 (Simulation time: 33 hr 57 min 10 sec) 
 Total Blocks : 262144 Invalid Blocks : 0
Heartbeat CPU 4 instructions: 320000001 cycles: 318378046 heartbeat IPC: 0.596382 cumulative IPC: 0.606468 (Simulation time: 34 hr 47 min 37 sec) 
 Total Blocks : 262144 Invalid Blocks : 0
Heartbeat CPU 3 instructions: 320000001 cycles: 318455041 heartbeat IPC: 0.593485 cumulative IPC: 0.606234 (Simulation time: 34 hr 48 min 4 sec) 
 Total Blocks : 262144 Invalid Blocks : 0
Heartbeat CPU 5 instructions: 320000001 cycles: 318503652 heartbeat IPC: 0.596589 cumulative IPC: 0.606085 (Simulation time: 34 hr 48 min 13 sec) 
 Total Blocks : 262144 Invalid Blocks : 0
Heartbeat CPU 2 instructions: 320000001 cycles: 318587189 heartbeat IPC: 0.596003 cumulative IPC: 0.605831 (Simulation time: 34 hr 48 min 26 sec) 
 Total Blocks : 262144 Invalid Blocks : 0
Heartbeat CPU 7 instructions: 320000001 cycles: 318609447 heartbeat IPC: 0.595612 cumulative IPC: 0.605762 (Simulation time: 34 hr 48 min 30 sec) 
 Total Blocks : 262144 Invalid Blocks : 0
Heartbeat CPU 1 instructions: 320000001 cycles: 318743206 heartbeat IPC: 0.596263 cumulative IPC: 0.605358 (Simulation time: 34 hr 48 min 48 sec) 
 Total Blocks : 262144 Invalid Blocks : 0
Heartbeat CPU 0 instructions: 320000001 cycles: 319048039 heartbeat IPC: 0.59742 cumulative IPC: 0.604427 (Simulation time: 34 hr 49 min 55 sec) 
 Total Blocks : 262144 Invalid Blocks : 0
Heartbeat CPU 6 instructions: 320000001 cycles: 319092896 heartbeat IPC: 0.595547 cumulative IPC: 0.604291 (Simulation time: 34 hr 50 min 3 sec) 
 Total Blocks : 262144 Invalid Blocks : 0
Heartbeat CPU 4 instructions: 330000000 cycles: 335142195 heartbeat IPC: 0.596511 cumulative IPC: 0.605691 (Simulation time: 35 hr 41 min 7 sec) 
 Total Blocks : 262144 Invalid Blocks : 0
Heartbeat CPU 5 instructions: 330000000 cycles: 335237180 heartbeat IPC: 0.597603 cumulative IPC: 0.605424 (Simulation time: 35 hr 41 min 36 sec) 
 Total Blocks : 262144 Invalid Blocks : 0
Heartbeat CPU 3 instructions: 330000000 cycles: 335315228 heartbeat IPC: 0.593113 cumulative IPC: 0.605204 (Simulation time: 35 hr 41 min 50 sec) 
 Total Blocks : 262144 Invalid Blocks : 0
Heartbeat CPU 2 instructions: 330000000 cycles: 335354325 heartbeat IPC: 0.596405 cumulative IPC: 0.605096 (Simulation time: 35 hr 41 min 57 sec) 
 Total Blocks : 262144 Invalid Blocks : 0
Heartbeat CPU 7 instructions: 330000000 cycles: 335416201 heartbeat IPC: 0.594999 cumulative IPC: 0.60492 (Simulation time: 35 hr 42 min 9 sec) 
 Total Blocks : 262144 Invalid Blocks : 0
Heartbeat CPU 1 instructions: 330000000 cycles: 335538422 heartbeat IPC: 0.595408 cumulative IPC: 0.604581 (Simulation time: 35 hr 42 min 27 sec) 
 Total Blocks : 262144 Invalid Blocks : 0
Heartbeat CPU 0 instructions: 330000000 cycles: 335754720 heartbeat IPC: 0.598563 cumulative IPC: 0.603971 (Simulation time: 35 hr 43 min 18 sec) 
 Total Blocks : 262144 Invalid Blocks : 0
Heartbeat CPU 6 instructions: 330000000 cycles: 335846540 heartbeat IPC: 0.596885 cumulative IPC: 0.603715 (Simulation time: 35 hr 43 min 34 sec) 
 Total Blocks : 262144 Invalid Blocks : 0
Heartbeat CPU 4 instructions: 340000000 cycles: 351793944 heartbeat IPC: 0.600538 cumulative IPC: 0.605319 (Simulation time: 36 hr 34 min 47 sec) 
 Total Blocks : 262144 Invalid Blocks : 0
Heartbeat CPU 5 instructions: 340000000 cycles: 351822136 heartbeat IPC: 0.602956 cumulative IPC: 0.605247 (Simulation time: 36 hr 34 min 55 sec) 
 Total Blocks : 262144 Invalid Blocks : 0
Heartbeat CPU 2 instructions: 340000000 cycles: 351977107 heartbeat IPC: 0.601584 cumulative IPC: 0.604843 (Simulation time: 36 hr 35 min 34 sec) 
 Total Blocks : 262144 Invalid Blocks : 0
Heartbeat CPU 3 instructions: 340000000 cycles: 352047775 heartbeat IPC: 0.597638 cumulative IPC: 0.604657 (Simulation time: 36 hr 35 min 46 sec) 
 Total Blocks : 262144 Invalid Blocks : 0
Heartbeat CPU 7 instructions: 340000000 cycles: 352086347 heartbeat IPC: 0.599875 cumulative IPC: 0.604557 (Simulation time: 36 hr 35 min 52 sec) 
 Total Blocks : 262144 Invalid Blocks : 0
Heartbeat CPU 1 instructions: 340000000 cycles: 352287403 heartbeat IPC: 0.597051 cumulative IPC: 0.604037 (Simulation time: 36 hr 36 min 33 sec) 
 Total Blocks : 262144 Invalid Blocks : 0
Heartbeat CPU 0 instructions: 340000000 cycles: 352326033 heartbeat IPC: 0.603453 cumulative IPC: 0.603934 (Simulation time: 36 hr 36 min 49 sec) 
 Total Blocks : 262144 Invalid Blocks : 0
Heartbeat CPU 6 instructions: 340000000 cycles: 352448691 heartbeat IPC: 0.602332 cumulative IPC: 0.603616 (Simulation time: 36 hr 37 min 10 sec) 
 Total Blocks : 262144 Invalid Blocks : 0
Heartbeat CPU 5 instructions: 350000002 cycles: 368406034 heartbeat IPC: 0.602995 cumulative IPC: 0.605096 (Simulation time: 37 hr 29 min 6 sec) 
 Total Blocks : 262144 Invalid Blocks : 0
Heartbeat CPU 4 instructions: 350000002 cycles: 368437641 heartbeat IPC: 0.600828 cumulative IPC: 0.605018 (Simulation time: 37 hr 29 min 20 sec) 
 Total Blocks : 262144 Invalid Blocks : 0
Heartbeat CPU 2 instructions: 350000002 cycles: 368560984 heartbeat IPC: 0.602995 cumulative IPC: 0.60472 (Simulation time: 37 hr 29 min 41 sec) 
 Total Blocks : 262144 Invalid Blocks : 0
Heartbeat CPU 7 instructions: 350000002 cycles: 368713519 heartbeat IPC: 0.601425 cumulative IPC: 0.604347 (Simulation time: 37 hr 30 min 6 sec) 
 Total Blocks : 262144 Invalid Blocks : 0
Heartbeat CPU 3 instructions: 350000002 cycles: 368746455 heartbeat IPC: 0.59885 cumulative IPC: 0.604267 (Simulation time: 37 hr 30 min 30 sec) 
 Total Blocks : 262144 Invalid Blocks : 0
Heartbeat CPU 0 instructions: 350000002 cycles: 368904476 heartbeat IPC: 0.603193 cumulative IPC: 0.603885 (Simulation time: 37 hr 30 min 57 sec) 
 Total Blocks : 262144 Invalid Blocks : 0
Heartbeat CPU 1 instructions: 350000002 cycles: 369010319 heartbeat IPC: 0.597982 cumulative IPC: 0.603629 (Simulation time: 37 hr 31 min 13 sec) 
 Total Blocks : 262144 Invalid Blocks : 0
Heartbeat CPU 6 instructions: 350000002 cycles: 369022158 heartbeat IPC: 0.603374 cumulative IPC: 0.6036 (Simulation time: 37 hr 31 min 16 sec) 
 Total Blocks : 262144 Invalid Blocks : 0
Heartbeat CPU 5 instructions: 360000001 cycles: 384999746 heartbeat IPC: 0.602638 cumulative IPC: 0.604942 (Simulation time: 38 hr 24 min 25 sec) 
 Total Blocks : 262144 Invalid Blocks : 0
Heartbeat CPU 4 instructions: 360000001 cycles: 385074672 heartbeat IPC: 0.601069 cumulative IPC: 0.60477 (Simulation time: 38 hr 24 min 36 sec) 
 Total Blocks : 262144 Invalid Blocks : 0
Heartbeat CPU 2 instructions: 360000001 cycles: 385130974 heartbeat IPC: 0.603501 cumulative IPC: 0.604643 (Simulation time: 38 hr 24 min 52 sec) 
 Total Blocks : 262144 Invalid Blocks : 0
Heartbeat CPU 7 instructions: 360000001 cycles: 385353821 heartbeat IPC: 0.600951 cumulative IPC: 0.604134 (Simulation time: 38 hr 25 min 35 sec) 
 Total Blocks : 262144 Invalid Blocks : 0
Heartbeat CPU 3 instructions: 360000001 cycles: 385434384 heartbeat IPC: 0.599235 cumulative IPC: 0.60395 (Simulation time: 38 hr 25 min 47 sec) 
 Total Blocks : 262144 Invalid Blocks : 0
Heartbeat CPU 0 instructions: 360000001 cycles: 385479573 heartbeat IPC: 0.603315 cumulative IPC: 0.603849 (Simulation time: 38 hr 25 min 54 sec) 
 Total Blocks : 262144 Invalid Blocks : 0
Heartbeat CPU 6 instructions: 360000001 cycles: 385601331 heartbeat IPC: 0.603166 cumulative IPC: 0.603572 (Simulation time: 38 hr 26 min 30 sec) 
 Total Blocks : 262144 Invalid Blocks : 0
Heartbeat CPU 1 instructions: 360000001 cycles: 385708447 heartbeat IPC: 0.598869 cumulative IPC: 0.603329 (Simulation time: 38 hr 26 min 58 sec) 
 Total Blocks : 262144 Invalid Blocks : 0
Heartbeat CPU 5 instructions: 370000001 cycles: 401580857 heartbeat IPC: 0.603096 cumulative IPC: 0.604833 (Simulation time: 39 hr 18 min 53 sec) 
 Total Blocks : 262144 Invalid Blocks : 0
Heartbeat CPU 4 instructions: 370000001 cycles: 401695494 heartbeat IPC: 0.601655 cumulative IPC: 0.604586 (Simulation time: 39 hr 19 min 13 sec) 
 Total Blocks : 262144 Invalid Blocks : 0
Heartbeat CPU 2 instructions: 370000001 cycles: 401714314 heartbeat IPC: 0.603015 cumulative IPC: 0.604547 (Simulation time: 39 hr 19 min 17 sec) 
 Total Blocks : 262144 Invalid Blocks : 0
Heartbeat CPU 7 instructions: 370000001 cycles: 401996925 heartbeat IPC: 0.600849 cumulative IPC: 0.60394 (Simulation time: 39 hr 20 min 18 sec) 
 Total Blocks : 262144 Invalid Blocks : 0
Heartbeat CPU 0 instructions: 370000001 cycles: 402069935 heartbeat IPC: 0.60276 cumulative IPC: 0.603785 (Simulation time: 39 hr 20 min 32 sec) 
 Total Blocks : 262144 Invalid Blocks : 0
Heartbeat CPU 3 instructions: 370000001 cycles: 402129696 heartbeat IPC: 0.598971 cumulative IPC: 0.603655 (Simulation time: 39 hr 20 min 47 sec) 
 Total Blocks : 262144 Invalid Blocks : 0
Heartbeat CPU 6 instructions: 370000001 cycles: 402204703 heartbeat IPC: 0.602287 cumulative IPC: 0.603497 (Simulation time: 39 hr 21 min 10 sec) 
 Total Blocks : 262144 Invalid Blocks : 0
Heartbeat CPU 1 instructions: 370000001 cycles: 402372182 heartbeat IPC: 0.600106 cumulative IPC: 0.603139 (Simulation time: 39 hr 21 min 38 sec) 
 Total Blocks : 262144 Invalid Blocks : 0
Heartbeat CPU 5 instructions: 380000002 cycles: 418156502 heartbeat IPC: 0.603295 cumulative IPC: 0.604748 (Simulation time: 40 hr 13 min 20 sec) 
 Total Blocks : 262144 Invalid Blocks : 0
Heartbeat CPU 2 instructions: 380000002 cycles: 418320233 heartbeat IPC: 0.602195 cumulative IPC: 0.604416 (Simulation time: 40 hr 14 min 2 sec) 
 Total Blocks : 262144 Invalid Blocks : 0
Heartbeat CPU 4 instructions: 380000002 cycles: 418331725 heartbeat IPC: 0.601098 cumulative IPC: 0.604391 (Simulation time: 40 hr 14 min 5 sec) 
 Total Blocks : 262144 Invalid Blocks : 0
Heartbeat CPU 7 instructions: 380000002 cycles: 418639730 heartbeat IPC: 0.60086 cumulative IPC: 0.603768 (Simulation time: 40 hr 14 min 55 sec) 
 Total Blocks : 262144 Invalid Blocks : 0
Heartbeat CPU 0 instructions: 380000002 cycles: 418645583 heartbeat IPC: 0.603295 cumulative IPC: 0.603758 (Simulation time: 40 hr 14 min 58 sec) 
 Total Blocks : 262144 Invalid Blocks : 0
Heartbeat CPU 3 instructions: 380000002 cycles: 418821512 heartbeat IPC: 0.599096 cumulative IPC: 0.6034 (Simulation time: 40 hr 15 min 39 sec) 
 Total Blocks : 262144 Invalid Blocks : 0
Heartbeat CPU 6 instructions: 380000002 cycles: 418870339 heartbeat IPC: 0.600037 cumulative IPC: 0.603303 (Simulation time: 40 hr 15 min 47 sec) 
 Total Blocks : 262144 Invalid Blocks : 0
Heartbeat CPU 1 instructions: 380000002 cycles: 419038347 heartbeat IPC: 0.600018 cumulative IPC: 0.602965 (Simulation time: 40 hr 16 min 15 sec) 
 Total Blocks : 262144 Invalid Blocks : 0
Heartbeat CPU 5 instructions: 390000003 cycles: 434753266 heartbeat IPC: 0.602527 cumulative IPC: 0.60463 (Simulation time: 41 hr 10 min 46 sec) 
 Total Blocks : 262144 Invalid Blocks : 0
Heartbeat CPU 2 instructions: 390000003 cycles: 434949407 heartbeat IPC: 0.601353 cumulative IPC: 0.604254 (Simulation time: 41 hr 11 min 37 sec) 
 Total Blocks : 262144 Invalid Blocks : 0
Heartbeat CPU 4 instructions: 390000003 cycles: 435008858 heartbeat IPC: 0.599624 cumulative IPC: 0.604138 (Simulation time: 41 hr 11 min 49 sec) 
 Total Blocks : 262144 Invalid Blocks : 0
Heartbeat CPU 0 instructions: 390000003 cycles: 435212977 heartbeat IPC: 0.603595 cumulative IPC: 0.603749 (Simulation time: 41 hr 12 min 39 sec) 
 Total Blocks : 262144 Invalid Blocks : 0
Heartbeat CPU 7 instructions: 390000003 cycles: 435358335 heartbeat IPC: 0.598136 cumulative IPC: 0.603469 (Simulation time: 41 hr 13 min 4 sec) 
 Total Blocks : 262144 Invalid Blocks : 0
Heartbeat CPU 6 instructions: 390000003 cycles: 435523176 heartbeat IPC: 0.600498 cumulative IPC: 0.603155 (Simulation time: 41 hr 13 min 33 sec) 
 Total Blocks : 262144 Invalid Blocks : 0
Heartbeat CPU 3 instructions: 390000003 cycles: 435525168 heartbeat IPC: 0.598671 cumulative IPC: 0.603149 (Simulation time: 41 hr 13 min 36 sec) 
 Total Blocks : 262144 Invalid Blocks : 0
Heartbeat CPU 1 instructions: 390000003 cycles: 435720441 heartbeat IPC: 0.599445 cumulative IPC: 0.602778 (Simulation time: 41 hr 14 min 20 sec) 
 Total Blocks : 262144 Invalid Blocks : 0
Heartbeat CPU 5 instructions: 400000000 cycles: 451324917 heartbeat IPC: 0.60344 cumulative IPC: 0.604571 (Simulation time: 42 hr 9 min 16 sec) 
 Total Blocks : 262144 Invalid Blocks : 0
Finished CPU 5 instructions: 200000000 cycles: 330813210 cumulative IPC: 0.604571 (Simulation time: 42 hr 9 min 19 sec) 
Heartbeat CPU 2 instructions: 400000000 cycles: 451540551 heartbeat IPC: 0.602731 cumulative IPC: 0.604178 (Simulation time: 42 hr 10 min 5 sec) 
 Total Blocks : 262144 Invalid Blocks : 0
Finished CPU 2 instructions: 200000001 cycles: 331028311 cumulative IPC: 0.604178 (Simulation time: 42 hr 10 min 12 sec) 
Heartbeat CPU 4 instructions: 400000000 cycles: 451713222 heartbeat IPC: 0.598646 cumulative IPC: 0.603861 (Simulation time: 42 hr 10 min 41 sec) 
 Total Blocks : 262144 Invalid Blocks : 0
Finished CPU 4 instructions: 200000000 cycles: 331202176 cumulative IPC: 0.603861 (Simulation time: 42 hr 10 min 43 sec) 
Heartbeat CPU 0 instructions: 400000000 cycles: 451745532 heartbeat IPC: 0.604867 cumulative IPC: 0.603805 (Simulation time: 42 hr 10 min 48 sec) 
 Total Blocks : 262144 Invalid Blocks : 0
Finished CPU 0 instructions: 200000001 cycles: 331232728 cumulative IPC: 0.603805 (Simulation time: 42 hr 10 min 49 sec) 
Heartbeat CPU 7 instructions: 400000000 cycles: 452055521 heartbeat IPC: 0.598903 cumulative IPC: 0.603239 (Simulation time: 42 hr 11 min 58 sec) 
 Total Blocks : 262144 Invalid Blocks : 0
Finished CPU 7 instructions: 200000001 cycles: 331543650 cumulative IPC: 0.603239 (Simulation time: 42 hr 12 min 1 sec) 
Heartbeat CPU 6 instructions: 400000000 cycles: 452153453 heartbeat IPC: 0.601313 cumulative IPC: 0.603063 (Simulation time: 42 hr 12 min 16 sec) 
 Total Blocks : 262144 Invalid Blocks : 0
Finished CPU 6 instructions: 200000001 cycles: 331640446 cumulative IPC: 0.603063 (Simulation time: 42 hr 12 min 18 sec) 
Heartbeat CPU 3 instructions: 400000000 cycles: 452192556 heartbeat IPC: 0.599974 cumulative IPC: 0.602989 (Simulation time: 42 hr 12 min 24 sec) 
 Total Blocks : 262144 Invalid Blocks : 0
Finished CPU 3 instructions: 200000001 cycles: 331680829 cumulative IPC: 0.602989 (Simulation time: 42 hr 12 min 26 sec) 
Heartbeat CPU 1 instructions: 400000000 cycles: 452368200 heartbeat IPC: 0.600681 cumulative IPC: 0.602673 (Simulation time: 42 hr 13 min 8 sec) 
 Total Blocks : 262144 Invalid Blocks : 0
Finished CPU 1 instructions: 200000000 cycles: 331854864 cumulative IPC: 0.602673 (Simulation time: 42 hr 13 min 10 sec) 

CPU 0 Branch Prediction Accuracy: 94.8788% MPKI: 13.125 Average ROB Occupancy at Mispredict: 72.3468

CPU 1 Branch Prediction Accuracy: 94.8788% MPKI: 13.125 Average ROB Occupancy at Mispredict: 72.3473

CPU 2 Branch Prediction Accuracy: 94.8788% MPKI: 13.1252 Average ROB Occupancy at Mispredict: 72.3453

CPU 3 Branch Prediction Accuracy: 94.8789% MPKI: 13.1248 Average ROB Occupancy at Mispredict: 72.3471

CPU 4 Branch Prediction Accuracy: 94.8788% MPKI: 13.125 Average ROB Occupancy at Mispredict: 72.3467

CPU 5 Branch Prediction Accuracy: 94.8788% MPKI: 13.1253 Average ROB Occupancy at Mispredict: 72.3463

CPU 6 Branch Prediction Accuracy: 94.8789% MPKI: 13.1248 Average ROB Occupancy at Mispredict: 72.3486

CPU 7 Branch Prediction Accuracy: 94.8788% MPKI: 13.1249 Average ROB Occupancy at Mispredict: 72.3463

ChampSim completed all CPUs

Total Simulation Statistics (not including warmup)

CPU 0 cumulative IPC: 0.603809 instructions: 200376785 cycles: 331854864
ITLB TOTAL     ACCESS: 25612737  HIT: 25612726  MISS:    11  HIT %:   100  MISS %: 4.29474e-05  AVERAGE MISS PENALTY: 171.545
ITLB LOAD      ACCESS: 25612737  HIT: 25612726  MISS:    11  HIT %:   100  MISS %: 4.29474e-05  AVERAGE MISS PENALTY: 171.545
ITLB RFO       ACCESS:     0  HIT:     0  MISS:     0  HIT %:     0  MISS %:     0  AVERAGE MISS PENALTY: 0
ITLB PREFETCH  ACCESS:     0  HIT:     0  MISS:     0  HIT %:     0  MISS %:     0  AVERAGE MISS PENALTY: 0
ITLB WRITEBACK ACCESS:     0  HIT:     0  MISS:     0  HIT %:     0  MISS %:     0  AVERAGE MISS PENALTY: 0

DTLB TOTAL     ACCESS: 50931685  HIT: 50849008  MISS: 82677  HIT %: 99.8377  MISS %: 0.162329  AVERAGE MISS PENALTY: 11.0854
DTLB LOAD      ACCESS: 47118553  HIT: 47036018  MISS: 82535  HIT %: 99.8248  MISS %: 0.175165  AVERAGE MISS PENALTY: 10.9364
DTLB RFO       ACCESS: 3813132  HIT: 3812990  MISS:   142  HIT %: 99.9963  MISS %: 0.00372397  AVERAGE MISS PENALTY: 97.7324
DTLB PREFETCH  ACCESS:     0  HIT:     0  MISS:     0  HIT %:     0  MISS %:     0  AVERAGE MISS PENALTY: 0
DTLB WRITEBACK ACCESS:     0  HIT:     0  MISS:     0  HIT %:     0  MISS %:     0  AVERAGE MISS PENALTY: 0

STLB TOTAL     ACCESS: 82688  HIT: 81352  MISS:  1336  HIT %: 98.3843  MISS %: 1.61571  AVERAGE MISS PENALTY: 100
STLB LOAD      ACCESS: 82546  HIT: 81336  MISS:  1210  HIT %: 98.5342  MISS %: 1.46585  AVERAGE MISS PENALTY: 100
STLB RFO       ACCESS:   142  HIT:    16  MISS:   126  HIT %: 11.2676  MISS %: 88.7324  AVERAGE MISS PENALTY: 100
STLB PREFETCH  ACCESS:     0  HIT:     0  MISS:     0  HIT %:     0  MISS %:     0  AVERAGE MISS PENALTY: 0
STLB WRITEBACK ACCESS:     0  HIT:     0  MISS:     0  HIT %:     0  MISS %:     0  AVERAGE MISS PENALTY: 0

L1D TOTAL     ACCESS: 64455220  HIT: 58991623  MISS: 5463597  HIT %: 91.5234  MISS %: 8.47658  AVERAGE MISS PENALTY: 4.42496e+07
L1D LOAD      ACCESS: 34636508  HIT: 33471455  MISS: 1165053  HIT %: 96.6363  MISS %: 3.36366  AVERAGE MISS PENALTY: 2.0747e+08
L1D RFO       ACCESS: 3942279  HIT: 3936797  MISS:  5482  HIT %: 99.8609  MISS %: 0.139057  AVERAGE MISS PENALTY: 8.91806e+06
L1D PREFETCH  ACCESS: 25876433  HIT: 21583371  MISS: 4293062  HIT %: 83.4094  MISS %: 16.5906  AVERAGE MISS PENALTY: 22.5316
L1D WRITEBACK ACCESS:     0  HIT:     0  MISS:     0  HIT %:     0  MISS %:     0  AVERAGE MISS PENALTY: 0

L1I TOTAL     ACCESS: 33216537  HIT: 33216445  MISS:    92  HIT %: 99.9997  MISS %: 0.00027697  AVERAGE MISS PENALTY: 162.957
L1I LOAD      ACCESS: 33216537  HIT: 33216445  MISS:    92  HIT %: 99.9997  MISS %: 0.00027697  AVERAGE MISS PENALTY: 162.957
L1I RFO       ACCESS:     0  HIT:     0  MISS:     0  HIT %:     0  MISS %:     0  AVERAGE MISS PENALTY: 0
L1I PREFETCH  ACCESS:     0  HIT:     0  MISS:     0  HIT %:     0  MISS %:     0  AVERAGE MISS PENALTY: 0
L1I WRITEBACK ACCESS:     0  HIT:     0  MISS:     0  HIT %:     0  MISS %:     0  AVERAGE MISS PENALTY: 0

L2C TOTAL     ACCESS: 8907419  HIT: 7725443  MISS: 1181976  HIT %: 86.7304  MISS %: 13.2696  AVERAGE MISS PENALTY: 2.26895e+06
L2C LOAD      ACCESS: 1100781  HIT: 1010383  MISS: 90398  HIT %: 91.7878  MISS %: 8.21217  AVERAGE MISS PENALTY: 2.96638e+07
L2C RFO       ACCESS:  5296  HIT:  4390  MISS:   906  HIT %: 82.8927  MISS %: 17.1073  AVERAGE MISS PENALTY: 267274
L2C PREFETCH  ACCESS: 7782289  HIT: 6691618  MISS: 1090671  HIT %: 85.9852  MISS %: 14.0148  AVERAGE MISS PENALTY: 48.5268
L2C WRITEBACK ACCESS: 19053  HIT: 19052  MISS:     1  HIT %: 99.9948  MISS %: 0.00524852  AVERAGE MISS PENALTY: 0


LLC0 TOTAL     ACCESS: 149272  HIT: 133787  MISS: 15485  HIT %: 89.6263  MISS %: 10.3737  AVERAGE MISS PENALTY: 156.864
LLC0 LOAD      ACCESS: 18510  HIT: 16016  MISS:  2494  HIT %: 86.5262  MISS %: 13.4738  AVERAGE MISS PENALTY: 156.543
LLC0 RFO       ACCESS:   176  HIT:     0  MISS:   176  HIT %:     0  MISS %:   100  AVERAGE MISS PENALTY: 105.875
LLC0 PREFETCH  ACCESS: 129936  HIT: 117323  MISS: 12613  HIT %: 90.2929  MISS %: 9.70709  AVERAGE MISS PENALTY: 160.151
LLC0 WRITEBACK ACCESS:   650  HIT:   448  MISS:   202  HIT %: 68.9231  MISS %: 31.0769  AVERAGE MISS PENALTY: 0

LLC1 TOTAL     ACCESS: 148173  HIT: 132698  MISS: 15475  HIT %: 89.5561  MISS %: 10.4439  AVERAGE MISS PENALTY: 155.99
LLC1 LOAD      ACCESS: 13961  HIT: 12215  MISS:  1746  HIT %: 87.4937  MISS %: 12.5063  AVERAGE MISS PENALTY: 148.574
LLC1 RFO       ACCESS:    71  HIT:     0  MISS:    71  HIT %:     0  MISS %:   100  AVERAGE MISS PENALTY: 99.5634
LLC1 PREFETCH  ACCESS: 133423  HIT: 119962  MISS: 13461  HIT %: 89.911  MISS %: 10.089  AVERAGE MISS PENALTY: 159.533
LLC1 WRITEBACK ACCESS:   718  HIT:   521  MISS:   197  HIT %: 72.5627  MISS %: 27.4373  AVERAGE MISS PENALTY: 0

LLC2 TOTAL     ACCESS: 147082  HIT: 131541  MISS: 15541  HIT %: 89.4338  MISS %: 10.5662  AVERAGE MISS PENALTY: 159.217
LLC2 LOAD      ACCESS:  8314  HIT:  6803  MISS:  1511  HIT %: 81.8258  MISS %: 18.1742  AVERAGE MISS PENALTY: 145.269
LLC2 RFO       ACCESS:    67  HIT:     3  MISS:    64  HIT %: 4.47761  MISS %: 95.5224  AVERAGE MISS PENALTY: 116.719
LLC2 PREFETCH  ACCESS: 138079  HIT: 124307  MISS: 13772  HIT %: 90.026  MISS %: 9.974  AVERAGE MISS PENALTY: 163.187
LLC2 WRITEBACK ACCESS:   622  HIT:   428  MISS:   194  HIT %: 68.8103  MISS %: 31.1897  AVERAGE MISS PENALTY: 0

LLC3 TOTAL     ACCESS: 147286  HIT: 131708  MISS: 15578  HIT %: 89.4233  MISS %: 10.5767  AVERAGE MISS PENALTY: 157.945
LLC3 LOAD      ACCESS: 11069  HIT:  9365  MISS:  1704  HIT %: 84.6057  MISS %: 15.3943  AVERAGE MISS PENALTY: 148.616
LLC3 RFO       ACCESS:   136  HIT:    68  MISS:    68  HIT %:    50  MISS %:    50  AVERAGE MISS PENALTY: 119.074
LLC3 PREFETCH  ACCESS: 135408  HIT: 121780  MISS: 13628  HIT %: 89.9356  MISS %: 10.0644  AVERAGE MISS PENALTY: 161.369
LLC3 WRITEBACK ACCESS:   673  HIT:   495  MISS:   178  HIT %: 73.5513  MISS %: 26.4487  AVERAGE MISS PENALTY: 0

LLC4 TOTAL     ACCESS: 147315  HIT: 131729  MISS: 15586  HIT %: 89.42  MISS %: 10.58  AVERAGE MISS PENALTY: 156.388
LLC4 LOAD      ACCESS:  5678  HIT:  4193  MISS:  1485  HIT %: 73.8464  MISS %: 26.1536  AVERAGE MISS PENALTY: 148.628
LLC4 RFO       ACCESS:   141  HIT:    78  MISS:    63  HIT %: 55.3191  MISS %: 44.6809  AVERAGE MISS PENALTY: 87.3492
LLC4 PREFETCH  ACCESS: 140815  HIT: 126968  MISS: 13847  HIT %: 90.1665  MISS %: 9.83347  AVERAGE MISS PENALTY: 159.692
LLC4 WRITEBACK ACCESS:   681  HIT:   490  MISS:   191  HIT %: 71.953  MISS %: 28.047  AVERAGE MISS PENALTY: 0

LLC5 TOTAL     ACCESS: 147534  HIT: 131900  MISS: 15634  HIT %: 89.4031  MISS %: 10.5969  AVERAGE MISS PENALTY: 157.28
LLC5 LOAD      ACCESS:  7980  HIT:  6639  MISS:  1341  HIT %: 83.1955  MISS %: 16.8045  AVERAGE MISS PENALTY: 145.168
LLC5 RFO       ACCESS:   126  HIT:    65  MISS:    61  HIT %: 51.5873  MISS %: 48.4127  AVERAGE MISS PENALTY: 101.459
LLC5 PREFETCH  ACCESS: 138717  HIT: 124671  MISS: 14046  HIT %: 89.8743  MISS %: 10.1257  AVERAGE MISS PENALTY: 160.761
LLC5 WRITEBACK ACCESS:   711  HIT:   525  MISS:   186  HIT %: 73.8397  MISS %: 26.1603  AVERAGE MISS PENALTY: 0

LLC6 TOTAL     ACCESS: 149096  HIT: 133468  MISS: 15628  HIT %: 89.5182  MISS %: 10.4818  AVERAGE MISS PENALTY: 159.312
LLC6 LOAD      ACCESS:  3560  HIT:  2405  MISS:  1155  HIT %: 67.5562  MISS %: 32.4438  AVERAGE MISS PENALTY: 135.366
LLC6 RFO       ACCESS:   128  HIT:    65  MISS:    63  HIT %: 50.7812  MISS %: 49.2188  AVERAGE MISS PENALTY: 104.841
LLC6 PREFETCH  ACCESS: 144698  HIT: 130477  MISS: 14221  HIT %: 90.1719  MISS %: 9.82806  AVERAGE MISS PENALTY: 163.616
LLC6 WRITEBACK ACCESS:   710  HIT:   521  MISS:   189  HIT %: 73.3803  MISS %: 26.6197  AVERAGE MISS PENALTY: 0

LLC7 TOTAL     ACCESS: 151633  HIT: 135983  MISS: 15650  HIT %: 89.679  MISS %: 10.321  AVERAGE MISS PENALTY: 159.812
LLC7 LOAD      ACCESS:  8037  HIT:  6883  MISS:  1154  HIT %: 85.6414  MISS %: 14.3586  AVERAGE MISS PENALTY: 135.161
LLC7 RFO       ACCESS:    60  HIT:     0  MISS:    60  HIT %:     0  MISS %:   100  AVERAGE MISS PENALTY: 123.867
LLC7 PREFETCH  ACCESS: 142885  HIT: 128643  MISS: 14242  HIT %: 90.0325  MISS %: 9.96746  AVERAGE MISS PENALTY: 164.138
LLC7 WRITEBACK ACCESS:   651  HIT:   457  MISS:   194  HIT %: 70.1997  MISS %: 29.8003  AVERAGE MISS PENALTY: 0

Total Rob stall cycles : 	257498903
Total Load Rob Stall cycles : 	96877474
Average Rob Stall cycles : 	 3
Average Load Rob Stall cycles : 	 7

CPU 1 cumulative IPC: 0.602673 instructions: 200000000 cycles: 331854864
ITLB TOTAL     ACCESS: 25563720  HIT: 25563709  MISS:    11  HIT %:   100  MISS %: 4.30297e-05  AVERAGE MISS PENALTY: 171.545
ITLB LOAD      ACCESS: 25563720  HIT: 25563709  MISS:    11  HIT %:   100  MISS %: 4.30297e-05  AVERAGE MISS PENALTY: 171.545
ITLB RFO       ACCESS:     0  HIT:     0  MISS:     0  HIT %:     0  MISS %:     0  AVERAGE MISS PENALTY: 0
ITLB PREFETCH  ACCESS:     0  HIT:     0  MISS:     0  HIT %:     0  MISS %:     0  AVERAGE MISS PENALTY: 0
ITLB WRITEBACK ACCESS:     0  HIT:     0  MISS:     0  HIT %:     0  MISS %:     0  AVERAGE MISS PENALTY: 0

DTLB TOTAL     ACCESS: 50837773  HIT: 50755286  MISS: 82487  HIT %: 99.8377  MISS %: 0.162255  AVERAGE MISS PENALTY: 11.0508
DTLB LOAD      ACCESS: 47031727  HIT: 46949382  MISS: 82345  HIT %: 99.8249  MISS %: 0.175084  AVERAGE MISS PENALTY: 10.9013
DTLB RFO       ACCESS: 3806046  HIT: 3805904  MISS:   142  HIT %: 99.9963  MISS %: 0.00373091  AVERAGE MISS PENALTY: 97.7324
DTLB PREFETCH  ACCESS:     0  HIT:     0  MISS:     0  HIT %:     0  MISS %:     0  AVERAGE MISS PENALTY: 0
DTLB WRITEBACK ACCESS:     0  HIT:     0  MISS:     0  HIT %:     0  MISS %:     0  AVERAGE MISS PENALTY: 0

STLB TOTAL     ACCESS: 82498  HIT: 81164  MISS:  1334  HIT %: 98.383  MISS %: 1.61701  AVERAGE MISS PENALTY: 100
STLB LOAD      ACCESS: 82356  HIT: 81148  MISS:  1208  HIT %: 98.5332  MISS %: 1.4668  AVERAGE MISS PENALTY: 100
STLB RFO       ACCESS:   142  HIT:    16  MISS:   126  HIT %: 11.2676  MISS %: 88.7324  AVERAGE MISS PENALTY: 100
STLB PREFETCH  ACCESS:     0  HIT:     0  MISS:     0  HIT %:     0  MISS %:     0  AVERAGE MISS PENALTY: 0
STLB WRITEBACK ACCESS:     0  HIT:     0  MISS:     0  HIT %:     0  MISS %:     0  AVERAGE MISS PENALTY: 0

L1D TOTAL     ACCESS: 63810098  HIT: 58357396  MISS: 5452702  HIT %: 91.4548  MISS %: 8.5452  AVERAGE MISS PENALTY: 4.64832e+07
L1D LOAD      ACCESS: 34538555  HIT: 33340332  MISS: 1198223  HIT %: 96.5308  MISS %: 3.46923  AVERAGE MISS PENALTY: 2.11495e+08
L1D RFO       ACCESS: 3935032  HIT: 3929581  MISS:  5451  HIT %: 99.8615  MISS %: 0.138525  AVERAGE MISS PENALTY: 7.55391e+06
L1D PREFETCH  ACCESS: 25336511  HIT: 21087483  MISS: 4249028  HIT %: 83.2296  MISS %: 16.7704  AVERAGE MISS PENALTY: 24.1117
L1D WRITEBACK ACCESS:     0  HIT:     0  MISS:     0  HIT %:     0  MISS %:     0  AVERAGE MISS PENALTY: 0

L1I TOTAL     ACCESS: 33153220  HIT: 33153128  MISS:    92  HIT %: 99.9997  MISS %: 0.000277499  AVERAGE MISS PENALTY: 175.946
L1I LOAD      ACCESS: 33153220  HIT: 33153128  MISS:    92  HIT %: 99.9997  MISS %: 0.000277499  AVERAGE MISS PENALTY: 175.946
L1I RFO       ACCESS:     0  HIT:     0  MISS:     0  HIT %:     0  MISS %:     0  AVERAGE MISS PENALTY: 0
L1I PREFETCH  ACCESS:     0  HIT:     0  MISS:     0  HIT %:     0  MISS %:     0  AVERAGE MISS PENALTY: 0
L1I WRITEBACK ACCESS:     0  HIT:     0  MISS:     0  HIT %:     0  MISS %:     0  AVERAGE MISS PENALTY: 0

L2C TOTAL     ACCESS: 8772117  HIT: 7149279  MISS: 1622838  HIT %:  81.5  MISS %:  18.5  AVERAGE MISS PENALTY: 2.70145e+06
L2C LOAD      ACCESS: 1101004  HIT: 987074  MISS: 113930  HIT %: 89.6522  MISS %: 10.3478  AVERAGE MISS PENALTY: 3.84794e+07
L2C RFO       ACCESS:  5290  HIT:  4158  MISS:  1132  HIT %: 78.6011  MISS %: 21.3989  AVERAGE MISS PENALTY: 95.5124
L2C PREFETCH  ACCESS: 7646792  HIT: 6139017  MISS: 1507775  HIT %: 80.2823  MISS %: 19.7177  AVERAGE MISS PENALTY: 44.0661
L2C WRITEBACK ACCESS: 19031  HIT: 19030  MISS:     1  HIT %: 99.9947  MISS %: 0.00525458  AVERAGE MISS PENALTY: 0


LLC0 TOTAL     ACCESS: 202426  HIT: 186999  MISS: 15427  HIT %: 92.3789  MISS %: 7.62106  AVERAGE MISS PENALTY: 151.249
LLC0 LOAD      ACCESS: 25964  HIT: 23421  MISS:  2543  HIT %: 90.2057  MISS %: 9.79433  AVERAGE MISS PENALTY: 150.461
LLC0 RFO       ACCESS:   180  HIT:     4  MISS:   176  HIT %: 2.22222  MISS %: 97.7778  AVERAGE MISS PENALTY: 100.085
LLC0 PREFETCH  ACCESS: 175483  HIT: 162993  MISS: 12490  HIT %: 92.8825  MISS %: 7.1175  AVERAGE MISS PENALTY: 154.771
LLC0 WRITEBACK ACCESS:   799  HIT:   581  MISS:   218  HIT %: 72.7159  MISS %: 27.2841  AVERAGE MISS PENALTY: 0

LLC1 TOTAL     ACCESS: 203901  HIT: 188307  MISS: 15594  HIT %: 92.3522  MISS %: 7.64783  AVERAGE MISS PENALTY: 150.496
LLC1 LOAD      ACCESS: 16386  HIT: 14580  MISS:  1806  HIT %: 88.9784  MISS %: 11.0216  AVERAGE MISS PENALTY: 144.309
LLC1 RFO       ACCESS:    83  HIT:     4  MISS:    79  HIT %: 4.81928  MISS %: 95.1807  AVERAGE MISS PENALTY: 93.8481
LLC1 PREFETCH  ACCESS: 186527  HIT: 173040  MISS: 13487  HIT %: 92.7694  MISS %: 7.23059  AVERAGE MISS PENALTY: 154.133
LLC1 WRITEBACK ACCESS:   905  HIT:   683  MISS:   222  HIT %: 75.4696  MISS %: 24.5304  AVERAGE MISS PENALTY: 0

LLC2 TOTAL     ACCESS: 206308  HIT: 190930  MISS: 15378  HIT %: 92.5461  MISS %: 7.4539  AVERAGE MISS PENALTY: 152.615
LLC2 LOAD      ACCESS: 11684  HIT: 10186  MISS:  1498  HIT %: 87.179  MISS %: 12.821  AVERAGE MISS PENALTY: 142.289
LLC2 RFO       ACCESS:    69  HIT:     5  MISS:    64  HIT %: 7.24638  MISS %: 92.7536  AVERAGE MISS PENALTY: 116.219
LLC2 PREFETCH  ACCESS: 193154  HIT: 179546  MISS: 13608  HIT %: 92.9548  MISS %: 7.04516  AVERAGE MISS PENALTY: 156.256
LLC2 WRITEBACK ACCESS:  1401  HIT:  1193  MISS:   208  HIT %: 85.1535  MISS %: 14.8465  AVERAGE MISS PENALTY: 0

LLC3 TOTAL     ACCESS: 204909  HIT: 189469  MISS: 15440  HIT %: 92.4649  MISS %: 7.53505  AVERAGE MISS PENALTY: 152.182
LLC3 LOAD      ACCESS: 17474  HIT: 15845  MISS:  1629  HIT %: 90.6776  MISS %: 9.32242  AVERAGE MISS PENALTY: 140.744
[...]
 TIMELY PREFETCHES:       3706 LATE PREFETCHES: 0 DROPPED PREFETCHES: 0
LLC1 AVERAGE MISS LATENCY: 161.071 cycles
LLC2 TOTAL     ACCESS: 165132  HIT: 149073  MISS: 16059  HIT %: 90.2751  MISS %: 9.72495  AVERAGE MISS PENALTY: 163.548
LLC2 LOAD      ACCESS:  6756  HIT:  5254  MISS:  1502  HIT %: 77.7679  MISS %: 22.2321  AVERAGE MISS PENALTY: 147.766
LLC2 RFO       ACCESS:    66  HIT:     2  MISS:    64  HIT %: 3.0303  MISS %: 96.9697  AVERAGE MISS PENALTY: 112.203
LLC2 PREFETCH  ACCESS: 157596  HIT: 143291  MISS: 14305  HIT %: 90.923  MISS %: 9.07701  AVERAGE MISS PENALTY: 167.585
LLC2 WRITEBACK ACCESS:   714  HIT:   526  MISS:   188  HIT %: 73.6695  MISS %: 26.3305  AVERAGE MISS PENALTY: 0
LLC2 PREFETCH  REQUESTED:     0  ISSUED:     0  USEFUL:  3745  USELESS: 111840
 USEFUL LOAD PREFETCHES:       3745 PREFETCH ISSUED TO LOWER LEVEL:     109644  ACCURACY: 3.4156
 TIMELY PREFETCHES:       3745 LATE PREFETCHES: 0 DROPPED PREFETCHES: 0
LLC2 AVERAGE MISS LATENCY: 163.548 cycles
LLC3 TOTAL     ACCESS: 163499  HIT: 147376  MISS: 16123  HIT %: 90.1388  MISS %: 9.86122  AVERAGE MISS PENALTY: 161.823
LLC3 LOAD      ACCESS: 12581  HIT: 10920  MISS:  1661  HIT %: 86.7976  MISS %: 13.2024  AVERAGE MISS PENALTY: 146.172
LLC3 RFO       ACCESS:   306  HIT:   232  MISS:    74  HIT %: 75.817  MISS %: 24.183  AVERAGE MISS PENALTY: 118.311
LLC3 PREFETCH  ACCESS: 149656  HIT: 135447  MISS: 14209  HIT %: 90.5056  MISS %: 9.49444  AVERAGE MISS PENALTY: 165.917
LLC3 WRITEBACK ACCESS:   956  HIT:   777  MISS:   179  HIT %: 81.2762  MISS %: 18.7238  AVERAGE MISS PENALTY: 0
LLC3 PREFETCH  REQUESTED:     0  ISSUED:     0  USEFUL:  4069  USELESS: 110598
 USEFUL LOAD PREFETCHES:       4069 PREFETCH ISSUED TO LOWER LEVEL:     108808  ACCURACY: 3.73961
 TIMELY PREFETCHES:       4069 LATE PREFETCHES: 0 DROPPED PREFETCHES: 0
LLC3 AVERAGE MISS LATENCY: 161.823 cycles
LLC4 TOTAL     ACCESS: 167084  HIT: 150921  MISS: 16163  HIT %: 90.3264  MISS %: 9.67358  AVERAGE MISS PENALTY: 160.726
LLC4 LOAD      ACCESS:  8349  HIT:  6832  MISS:  1517  HIT %: 81.8302  MISS %: 18.1698  AVERAGE MISS PENALTY: 147.661
LLC4 RFO       ACCESS:   303  HIT:   236  MISS:    67  HIT %: 77.8878  MISS %: 22.1122  AVERAGE MISS PENALTY: 97.1493
LLC4 PREFETCH  ACCESS: 157472  HIT: 143093  MISS: 14379  HIT %: 90.8689  MISS %: 9.13115  AVERAGE MISS PENALTY: 164.637
LLC4 WRITEBACK ACCESS:   960  HIT:   760  MISS:   200  HIT %: 79.1667  MISS %: 20.8333  AVERAGE MISS PENALTY: 0
LLC4 PREFETCH  REQUESTED:     0  ISSUED:     0  USEFUL:  4194  USELESS: 112441
 USEFUL LOAD PREFETCHES:       4194 PREFETCH ISSUED TO LOWER LEVEL:     110525  ACCURACY: 3.79462
 TIMELY PREFETCHES:       4194 LATE PREFETCHES: 0 DROPPED PREFETCHES: 0
LLC4 AVERAGE MISS LATENCY: 160.726 cycles
LLC5 TOTAL     ACCESS: 167079  HIT: 150925  MISS: 16154  HIT %: 90.3315  MISS %: 9.66848  AVERAGE MISS PENALTY: 160.38
LLC5 LOAD      ACCESS:  8985  HIT:  7647  MISS:  1338  HIT %: 85.1085  MISS %: 14.8915  AVERAGE MISS PENALTY: 145.785
LLC5 RFO       ACCESS:   261  HIT:   196  MISS:    65  HIT %: 75.0958  MISS %: 24.9042  AVERAGE MISS PENALTY: 99.9846
LLC5 PREFETCH  ACCESS: 156855  HIT: 142317  MISS: 14538  HIT %: 90.7316  MISS %: 9.26843  AVERAGE MISS PENALTY: 164.343
LLC5 WRITEBACK ACCESS:   978  HIT:   765  MISS:   213  HIT %: 78.2209  MISS %: 21.7791  AVERAGE MISS PENALTY: 0
LLC5 PREFETCH  REQUESTED:     0  ISSUED:     0  USEFUL:  4146  USELESS: 114201
 USEFUL LOAD PREFETCHES:       4146 PREFETCH ISSUED TO LOWER LEVEL:     111939  ACCURACY: 3.7038
 TIMELY PREFETCHES:       4146 LATE PREFETCHES: 0 DROPPED PREFETCHES: 0
LLC5 AVERAGE MISS LATENCY: 160.38 cycles
LLC6 TOTAL     ACCESS: 163640  HIT: 147438  MISS: 16202  HIT %: 90.099  MISS %: 9.901  AVERAGE MISS PENALTY: 163.771
LLC6 LOAD      ACCESS:  4026  HIT:  2833  MISS:  1193  HIT %: 70.3676  MISS %: 29.6324  AVERAGE MISS PENALTY: 136.785
LLC6 RFO       ACCESS:   258  HIT:   193  MISS:    65  HIT %: 74.8062  MISS %: 25.1938  AVERAGE MISS PENALTY: 116.138
LLC6 PREFETCH  ACCESS: 158407  HIT: 143666  MISS: 14741  HIT %: 90.6942  MISS %: 9.30578  AVERAGE MISS PENALTY: 168.42
LLC6 WRITEBACK ACCESS:   949  HIT:   746  MISS:   203  HIT %: 78.6091  MISS %: 21.3909  AVERAGE MISS PENALTY: 0
LLC6 PREFETCH  REQUESTED:     0  ISSUED:     0  USEFUL:  4067  USELESS: 115075
 USEFUL LOAD PREFETCHES:       4067 PREFETCH ISSUED TO LOWER LEVEL:     113058  ACCURACY: 3.59727
 TIMELY PREFETCHES:       4067 LATE PREFETCHES: 0 DROPPED PREFETCHES: 0
LLC6 AVERAGE MISS LATENCY: 163.771 cycles
LLC7 TOTAL     ACCESS: 164385  HIT: 148137  MISS: 16248  HIT %: 90.1159  MISS %: 9.88411  AVERAGE MISS PENALTY: 163.098
LLC7 LOAD      ACCESS:  6155  HIT:  4941  MISS:  1214  HIT %: 80.2762  MISS %: 19.7238  AVERAGE MISS PENALTY: 137.62
LLC7 RFO       ACCESS:    60  HIT:     0  MISS:    60  HIT %:     0  MISS %:   100  AVERAGE MISS PENALTY: 118.333
LLC7 PREFETCH  ACCESS: 157416  HIT: 142652  MISS: 14764  HIT %: 90.621  MISS %: 9.37897  AVERAGE MISS PENALTY: 167.695
LLC7 WRITEBACK ACCESS:   754  HIT:   544  MISS:   210  HIT %: 72.1485  MISS %: 27.8515  AVERAGE MISS PENALTY: 0
LLC7 PREFETCH  REQUESTED:     0  ISSUED:     0  USEFUL:  3848  USELESS: 115246
 USEFUL LOAD PREFETCHES:       3848 PREFETCH ISSUED TO LOWER LEVEL:     112897  ACCURACY: 3.40842
 TIMELY PREFETCHES:       3848 LATE PREFETCHES: 0 DROPPED PREFETCHES: 0
LLC7 AVERAGE MISS LATENCY: 163.098 cycles
ROI Average ROB Stall Cycles:	3.90028
ROI Total ROB Stalls Cycles:	257425228
ROI TOTAL ROB counter      :	66001688
ROI Average Load ROB Stall Cycles:	7.80385
ROI Total Load ROB Stalls Cycle  :	97117124
ROI Total Load ROB stalls Counter:	12444767
Major fault: 0 Minor fault: 2192

CPU 7 cumulative IPC: 0.603239 instructions: 200000001 cycles: 331543650
ITLB TOTAL     ACCESS: 25563650  HIT: 25563639  MISS:    11  HIT %:   100  MISS %: 4.30298e-05  AVERAGE MISS PENALTY: 171.545
ITLB LOAD      ACCESS: 25563650  HIT: 25563639  MISS:    11  HIT %:   100  MISS %: 4.30298e-05  AVERAGE MISS PENALTY: 171.545
ITLB RFO       ACCESS:     0  HIT:     0  MISS:     0  HIT %:     0  MISS %:     0  AVERAGE MISS PENALTY: 0
ITLB PREFETCH  ACCESS:     0  HIT:     0  MISS:     0  HIT %:     0  MISS %:     0  AVERAGE MISS PENALTY: 0
ITLB WRITEBACK ACCESS:     0  HIT:     0  MISS:     0  HIT %:     0  MISS %:     0  AVERAGE MISS PENALTY: 0
ITLB PREFETCH  REQUESTED:     0  ISSUED:     0  USEFUL:     0  USELESS:     0
 USEFUL LOAD PREFETCHES:          0 PREFETCH ISSUED TO LOWER LEVEL:          0  ACCURACY: -nan
 TIMELY PREFETCHES:          0 LATE PREFETCHES: 0 DROPPED PREFETCHES: 0
ITLB AVERAGE MISS LATENCY: 171.545 cycles
DTLB TOTAL     ACCESS: 50837666  HIT: 50755178  MISS: 82488  HIT %: 99.8377  MISS %: 0.162258  AVERAGE MISS PENALTY: 11.0332
DTLB LOAD      ACCESS: 47031631  HIT: 46949285  MISS: 82346  HIT %: 99.8249  MISS %: 0.175086  AVERAGE MISS PENALTY: 10.8836
DTLB RFO       ACCESS: 3806035  HIT: 3805893  MISS:   142  HIT %: 99.9963  MISS %: 0.00373092  AVERAGE MISS PENALTY: 97.7324
DTLB PREFETCH  ACCESS:     0  HIT:     0  MISS:     0  HIT %:     0  MISS %:     0  AVERAGE MISS PENALTY: 0
DTLB WRITEBACK ACCESS:     0  HIT:     0  MISS:     0  HIT %:     0  MISS %:     0  AVERAGE MISS PENALTY: 0
DTLB PREFETCH  REQUESTED:     0  ISSUED:     0  USEFUL:     0  USELESS:     0
 USEFUL LOAD PREFETCHES:          0 PREFETCH ISSUED TO LOWER LEVEL:          0  ACCURACY: -nan
 TIMELY PREFETCHES:          0 LATE PREFETCHES: 0 DROPPED PREFETCHES: 0
DTLB AVERAGE MISS LATENCY: 11.0332 cycles
STLB TOTAL     ACCESS: 82499  HIT: 81165  MISS:  1334  HIT %: 98.383  MISS %: 1.61699  AVERAGE MISS PENALTY: 100
STLB LOAD      ACCESS: 82357  HIT: 81149  MISS:  1208  HIT %: 98.5332  MISS %: 1.46678  AVERAGE MISS PENALTY: 100
STLB RFO       ACCESS:   142  HIT:    16  MISS:   126  HIT %: 11.2676  MISS %: 88.7324  AVERAGE MISS PENALTY: 100
STLB PREFETCH  ACCESS:     0  HIT:     0  MISS:     0  HIT %:     0  MISS %:     0  AVERAGE MISS PENALTY: 0
STLB WRITEBACK ACCESS:     0  HIT:     0  MISS:     0  HIT %:     0  MISS %:     0  AVERAGE MISS PENALTY: 0
STLB PREFETCH  REQUESTED:     0  ISSUED:     0  USEFUL:     0  USELESS:     0
 USEFUL LOAD PREFETCHES:          0 PREFETCH ISSUED TO LOWER LEVEL:          0  ACCURACY: -nan
 TIMELY PREFETCHES:          0 LATE PREFETCHES: 0 DROPPED PREFETCHES: 0
STLB AVERAGE MISS LATENCY: 100 cycles
L1D TOTAL     ACCESS: 63758418  HIT: 58305581  MISS: 5452837  HIT %: 91.4477  MISS %: 8.55234  AVERAGE MISS PENALTY: 4.64478e+07
L1D LOAD      ACCESS: 34539792  HIT: 33340455  MISS: 1199337  HIT %: 96.5277  MISS %: 3.47233  AVERAGE MISS PENALTY: 2.11117e+08
L1D RFO       ACCESS: 3933782  HIT: 3928243  MISS:  5539  HIT %: 99.8592  MISS %: 0.140806  AVERAGE MISS PENALTY: 1.28372e+07
L1D PREFETCH  ACCESS: 25284844  HIT: 21036883  MISS: 4247961  HIT %: 83.1996  MISS %: 16.8004  AVERAGE MISS PENALTY: 24.1263
L1D WRITEBACK ACCESS:     0  HIT:     0  MISS:     0  HIT %:     0  MISS %:     0  AVERAGE MISS PENALTY: 0
L1D PREFETCH  REQUESTED: 39419419  ISSUED: 39242081  USEFUL: 3696087  USELESS: 551809
 USEFUL LOAD PREFETCHES:    3696087 PREFETCH ISSUED TO LOWER LEVEL:    9464564  ACCURACY: 39.0518
 TIMELY PREFETCHES:    3696087 LATE PREFETCHES: 1694631 DROPPED PREFETCHES: 177338
L1D AVERAGE MISS LATENCY: 13064 cycles
L1I TOTAL     ACCESS: 33152984  HIT: 33152892  MISS:    92  HIT %: 99.9997  MISS %: 0.000277501  AVERAGE MISS PENALTY: 172.663
L1I LOAD      ACCESS: 33152984  HIT: 33152892  MISS:    92  HIT %: 99.9997  MISS %: 0.000277501  AVERAGE MISS PENALTY: 172.663
L1I RFO       ACCESS:     0  HIT:     0  MISS:     0  HIT %:     0  MISS %:     0  AVERAGE MISS PENALTY: 0
L1I PREFETCH  ACCESS:     0  HIT:     0  MISS:     0  HIT %:     0  MISS %:     0  AVERAGE MISS PENALTY: 0
L1I WRITEBACK ACCESS:     0  HIT:     0  MISS:     0  HIT %:     0  MISS %:     0  AVERAGE MISS PENALTY: 0
L1I PREFETCH  REQUESTED:     0  ISSUED:     0  USEFUL:     0  USELESS:     0
 USEFUL LOAD PREFETCHES:          0 PREFETCH ISSUED TO LOWER LEVEL:          0  ACCURACY: -nan
 TIMELY PREFETCHES:          0 LATE PREFETCHES: 0 DROPPED PREFETCHES: 0
L1I AVERAGE MISS LATENCY: 172.663 cycles
L2C TOTAL     ACCESS: 8757755  HIT: 7071710  MISS: 1686045  HIT %: 80.748  MISS %: 19.252  AVERAGE MISS PENALTY: 2.12589e+06
L2C LOAD      ACCESS: 1100820  HIT: 985329  MISS: 115491  HIT %: 89.5086  MISS %: 10.4914  AVERAGE MISS PENALTY: 3.10351e+07
L2C RFO       ACCESS:  5289  HIT:  2979  MISS:  2310  HIT %: 56.3244  MISS %: 43.6756  AVERAGE MISS PENALTY: 65.8883
L2C PREFETCH  ACCESS: 7632615  HIT: 6064372  MISS: 1568243  HIT %: 79.4534  MISS %: 20.5466  AVERAGE MISS PENALTY: 42.6816
L2C WRITEBACK ACCESS: 19031  HIT: 19030  MISS:     1  HIT %: 99.9947  MISS %: 0.00525458  AVERAGE MISS PENALTY: 0
L2C PREFETCH  REQUESTED: 9280320  ISSUED: 9279284  USEFUL: 226671  USELESS: 1339245
 USEFUL LOAD PREFETCHES:     226671 PREFETCH ISSUED TO LOWER LEVEL:    1884522  ACCURACY: 12.028
 TIMELY PREFETCHES:     226671 LATE PREFETCHES: 54070 DROPPED PREFETCHES: 1036
L2C AVERAGE MISS LATENCY: 43.575 cycles
LLC0 TOTAL     ACCESS: 209701  HIT: 194458  MISS: 15243  HIT %: 92.7311  MISS %: 7.26892  AVERAGE MISS PENALTY: 135.351
LLC0 LOAD      ACCESS: 26440  HIT: 23973  MISS:  2467  HIT %: 90.6694  MISS %: 9.33056  AVERAGE MISS PENALTY: 135.699
LLC0 RFO       ACCESS:   177  HIT:     1  MISS:   176  HIT %: 0.564972  MISS %: 99.435  AVERAGE MISS PENALTY: 103.017
LLC0 PREFETCH  ACCESS: 182246  HIT: 169874  MISS: 12372  HIT %: 93.2114  MISS %: 6.78863  AVERAGE MISS PENALTY: 138.236
LLC0 WRITEBACK ACCESS:   838  HIT:   610  MISS:   228  HIT %: 72.7924  MISS %: 27.2076  AVERAGE MISS PENALTY: 0
LLC0 PREFETCH  REQUESTED:     0  ISSUED:     0  USEFUL:  3926  USELESS: 101958
 USEFUL LOAD PREFETCHES:       3926 PREFETCH ISSUED TO LOWER LEVEL:     100133  ACCURACY: 3.92079
 TIMELY PREFETCHES:       3926 LATE PREFETCHES: 0 DROPPED PREFETCHES: 0
LLC0 AVERAGE MISS LATENCY: 135.351 cycles
Deadblocks : 12701 Deadblock percentage : 514.836

LLC1 TOTAL     ACCESS: 212836  HIT: 197491  MISS: 15345  HIT %: 92.7902  MISS %: 7.20978  AVERAGE MISS PENALTY: 135.21
LLC1 LOAD      ACCESS: 17651  HIT: 15921  MISS:  1730  HIT %: 90.1989  MISS %: 9.80114  AVERAGE MISS PENALTY: 132.861
LLC1 RFO       ACCESS:    74  HIT:     1  MISS:    73  HIT %: 1.35135  MISS %: 98.6486  AVERAGE MISS PENALTY: 106.315
LLC1 PREFETCH  ACCESS: 193797  HIT: 180498  MISS: 13299  HIT %: 93.1377  MISS %: 6.86234  AVERAGE MISS PENALTY: 138.145
LLC1 WRITEBACK ACCESS:  1314  HIT:  1071  MISS:   243  HIT %: 81.5068  MISS %: 18.4932  AVERAGE MISS PENALTY: 0
LLC1 PREFETCH  REQUESTED:     0  ISSUED:     0  USEFUL:  3706  USELESS: 109550
 USEFUL LOAD PREFETCHES:       3706 PREFETCH ISSUED TO LOWER LEVEL:     107470  ACCURACY: 3.4484
 TIMELY PREFETCHES:       3706 LATE PREFETCHES: 0 DROPPED PREFETCHES: 0
LLC1 AVERAGE MISS LATENCY: 135.21 cycles
LLC2 TOTAL     ACCESS: 206893  HIT: 191571  MISS: 15322  HIT %: 92.5942  MISS %: 7.40576  AVERAGE MISS PENALTY: 138.312
LLC2 LOAD      ACCESS: 10499  HIT:  8956  MISS:  1543  HIT %: 85.3034  MISS %: 14.6966  AVERAGE MISS PENALTY: 132.472
LLC2 RFO       ACCESS:    67  HIT:     2  MISS:    65  HIT %: 2.98507  MISS %: 97.0149  AVERAGE MISS PENALTY: 118.169
LLC2 PREFETCH  ACCESS: 195484  HIT: 182002  MISS: 13482  HIT %: 93.1033  MISS %: 6.89673  AVERAGE MISS PENALTY: 141.458
LLC2 WRITEBACK ACCESS:   843  HIT:   611  MISS:   232  HIT %: 72.4792  MISS %: 27.5208  AVERAGE MISS PENALTY: 0
LLC2 PREFETCH  REQUESTED:     0  ISSUED:     0  USEFUL:  3745  USELESS: 111840
 USEFUL LOAD PREFETCHES:       3745 PREFETCH ISSUED TO LOWER LEVEL:     109644  ACCURACY: 3.4156
 TIMELY PREFETCHES:       3745 LATE PREFETCHES: 0 DROPPED PREFETCHES: 0
LLC2 AVERAGE MISS LATENCY: 138.312 cycles
LLC3 TOTAL     ACCESS: 208734  HIT: 193495  MISS: 15239  HIT %: 92.6993  MISS %: 7.30068  AVERAGE MISS PENALTY: 136.893
LLC3 LOAD      ACCESS: 15186  HIT: 13568  MISS:  1618  HIT %: 89.3454  MISS %: 10.6546  AVERAGE MISS PENALTY: 129.256
LLC3 RFO       ACCESS:   519  HIT:   446  MISS:    73  HIT %: 85.9345  MISS %: 14.0655  AVERAGE MISS PENALTY: 131.288
LLC3 PREFETCH  ACCESS: 191705  HIT: 178399  MISS: 13306  HIT %: 93.0591  MISS %: 6.94087  AVERAGE MISS PENALTY: 140.342
LLC3 WRITEBACK ACCESS:  1324  HIT:  1082  MISS:   242  HIT %: 81.7221  MISS %: 18.2779  AVERAGE MISS PENALTY: 0
LLC3 PREFETCH  REQUESTED:     0  ISSUED:     0  USEFUL:  4069  USELESS: 110598
 USEFUL LOAD PREFETCHES:       4069 PREFETCH ISSUED TO LOWER LEVEL:     108808  ACCURACY: 3.73961
 TIMELY PREFETCHES:       4069 LATE PREFETCHES: 0 DROPPED PREFETCHES: 0
LLC3 AVERAGE MISS LATENCY: 136.893 cycles
LLC4 TOTAL     ACCESS: 212537  HIT: 197085  MISS: 15452  HIT %: 92.7297  MISS %: 7.27026  AVERAGE MISS PENALTY: 135.352
LLC4 LOAD      ACCESS: 10465  HIT:  8955  MISS:  1510  HIT %: 85.571  MISS %: 14.429  AVERAGE MISS PENALTY: 130.685
LLC4 RFO       ACCESS:   515  HIT:   450  MISS:    65  HIT %: 87.3786  MISS %: 12.6214  AVERAGE MISS PENALTY: 105.538
LLC4 PREFETCH  ACCESS: 200260  HIT: 186622  MISS: 13638  HIT %: 93.1899  MISS %: 6.81015  AVERAGE MISS PENALTY: 138.383
LLC4 WRITEBACK ACCESS:  1297  HIT:  1058  MISS:   239  HIT %: 81.5729  MISS %: 18.4271  AVERAGE MISS PENALTY: 0
LLC4 PREFETCH  REQUESTED:     0  ISSUED:     0  USEFUL:  4194  USELESS: 112441
 USEFUL LOAD PREFETCHES:       4194 PREFETCH ISSUED TO LOWER LEVEL:     110525  ACCURACY: 3.79462
 TIMELY PREFETCHES:       4194 LATE PREFETCHES: 0 DROPPED PREFETCHES: 0
LLC4 AVERAGE MISS LATENCY: 135.352 cycles
LLC5 TOTAL     ACCESS: 214891  HIT: 199491  MISS: 15400  HIT %: 92.8336  MISS %: 7.16642  AVERAGE MISS PENALTY: 135.675
LLC5 LOAD      ACCESS:  8732  HIT:  7427  MISS:  1305  HIT %: 85.055  MISS %: 14.945  AVERAGE MISS PENALTY: 129.438
LLC5 RFO       ACCESS:   450  HIT:   387  MISS:    63  HIT %:    86  MISS %:    14  AVERAGE MISS PENALTY: 110.381
LLC5 PREFETCH  ACCESS: 204395  HIT: 190605  MISS: 13790  HIT %: 93.2533  MISS %: 6.74674  AVERAGE MISS PENALTY: 138.761
LLC5 WRITEBACK ACCESS:  1314  HIT:  1072  MISS:   242  HIT %: 81.583  MISS %: 18.417  AVERAGE MISS PENALTY: 0
LLC5 PREFETCH  REQUESTED:     0  ISSUED:     0  USEFUL:  4146  USELESS: 114201
 USEFUL LOAD PREFETCHES:       4146 PREFETCH ISSUED TO LOWER LEVEL:     111939  ACCURACY: 3.7038
 TIMELY PREFETCHES:       4146 LATE PREFETCHES: 0 DROPPED PREFETCHES: 0
LLC5 AVERAGE MISS LATENCY: 135.675 cycles
LLC6 TOTAL     ACCESS: 214014  HIT: 198593  MISS: 15421  HIT %: 92.7944  MISS %: 7.2056  AVERAGE MISS PENALTY: 138.546
LLC6 LOAD      ACCESS:  4857  HIT:  3671  MISS:  1186  HIT %: 75.5816  MISS %: 24.4184  AVERAGE MISS PENALTY: 125.62
LLC6 RFO       ACCESS:   448  HIT:   384  MISS:    64  HIT %: 85.7143  MISS %: 14.2857  AVERAGE MISS PENALTY: 125.281
LLC6 PREFETCH  ACCESS: 207416  HIT: 193468  MISS: 13948  HIT %: 93.2754  MISS %: 6.72465  AVERAGE MISS PENALTY: 141.922
LLC6 WRITEBACK ACCESS:  1293  HIT:  1070  MISS:   223  HIT %: 82.7533  MISS %: 17.2467  AVERAGE MISS PENALTY: 0
LLC6 PREFETCH  REQUESTED:     0  ISSUED:     0  USEFUL:  4067  USELESS: 115075
 USEFUL LOAD PREFETCHES:       4067 PREFETCH ISSUED TO LOWER LEVEL:     113058  ACCURACY: 3.59727
 TIMELY PREFETCHES:       4067 LATE PREFETCHES: 0 DROPPED PREFETCHES: 0
LLC6 AVERAGE MISS LATENCY: 138.546 cycles
LLC7 TOTAL     ACCESS: 215531  HIT: 200064  MISS: 15467  HIT %: 92.8238  MISS %: 7.17623  AVERAGE MISS PENALTY: 138.576
LLC7 LOAD      ACCESS:  7633  HIT:  6489  MISS:  1144  HIT %: 85.0124  MISS %: 14.9876  AVERAGE MISS PENALTY: 126.711
LLC7 RFO       ACCESS:    60  HIT:     0  MISS:    60  HIT %:     0  MISS %:   100  AVERAGE MISS PENALTY: 138.867
LLC7 PREFETCH  ACCESS: 206968  HIT: 192940  MISS: 14028  HIT %: 93.2221  MISS %: 6.77786  AVERAGE MISS PENALTY: 141.864
LLC7 WRITEBACK ACCESS:   870  HIT:   635  MISS:   235  HIT %: 72.9885  MISS %: 27.0115  AVERAGE MISS PENALTY: 0
LLC7 PREFETCH  REQUESTED:     0  ISSUED:     0  USEFUL:  3848  USELESS: 115246
 USEFUL LOAD PREFETCHES:       3848 PREFETCH ISSUED TO LOWER LEVEL:     112897  ACCURACY: 3.40842
 TIMELY PREFETCHES:       3848 LATE PREFETCHES: 0 DROPPED PREFETCHES: 0
LLC7 AVERAGE MISS LATENCY: 138.576 cycles
ROI Average ROB Stall Cycles:	3.89684
ROI Total ROB Stalls Cycles:	257329252
ROI TOTAL ROB counter      :	66035354
ROI Average Load ROB Stall Cycles:	7.7756
ROI Total Load ROB Stalls Cycle  :	96983232
ROI Total Load ROB stalls Counter:	12472758
Major fault: 0 Minor fault: 2192








Interconnect Stats 
LINK 0 BW : 0LINK 1 BW : 0LINK 2 BW : 0LINK 3 BW : 0LINK 4 BW : 0LINK 5 BW : 0LINK 6 BW : 0LINK 7 BW : 0
DRAM Statistics
 CHANNEL 0
 RQ ROW_BUFFER_HIT: 232264  ROW_BUFFER_MISS: 257724
 DBUS_CONGESTED: 108226
 WQ ROW_BUFFER_HIT:   373  ROW_BUFFER_MISS:  4028  FULL:     0

 CHANNEL 1
 RQ ROW_BUFFER_HIT: 233606  ROW_BUFFER_MISS: 256897
 DBUS_CONGESTED: 108226
 WQ ROW_BUFFER_HIT:   345  ROW_BUFFER_MISS:  4182  FULL:     0

 AVG_CONGESTED_CYCLE: 4
DRAM PAGES: 2097152
Allocated PAGES: 17539
L2C destructor called
L1D destructor called
L1I destructor called
STLB destructor called
DTLB destructor called
ITLB destructor called
L2C destructor called
L1D destructor called
L1I destructor called
STLB destructor called
DTLB destructor called
ITLB destructor called
L2C destructor called
L1D destructor called
L1I destructor called
STLB destructor called
DTLB destructor called
ITLB destructor called
L2C destructor called
L1D destructor called
L1I destructor called
STLB destructor called
DTLB destructor called
ITLB destructor called
L2C destructor called
L1D destructor called
L1I destructor called
STLB destructor called
DTLB destructor called
ITLB destructor called
L2C destructor called
L1D destructor called
L1I destructor called
STLB destructor called
DTLB destructor called
ITLB destructor called
L2C destructor called
L1D destructor called
L1I destructor called
STLB destructor called
DTLB destructor called
ITLB destructor called
L2C destructor called
L1D destructor called
L1I destructor called
STLB destructor called
DTLB destructor called
ITLB destructor called
