
*** ChampSim Multicore Out-of-Order Simulator ***

Warmup Instructions: 200000000
Simulation Instructions: 200000000
Number of CPUs: 8
threads:1

L1I Configuration:
L1I_SET:64
L1I_WAY:8
L1I_RQ_SIZE:64
L1I_WQ_SIZE:64
L1I_PQ_SIZE:8
L1I_MSHR_SIZE:8

L1D Configuration:
L1D_SET:64
L1D_WAY:12
L1D_RQ_SIZE:64
L1D_WQ_SIZE:64
L1D_PQ_SIZE:8
L1D_MSHR_SIZE:16

L2C Configuration:
L2C_SET:1024
L2C_WAY:8
L2C_RQ_SIZE:32
L2C_WQ_SIZE:32
L2C_PQ_SIZE:16
L2C_MSHR_SIZE:32

LLC Configuration:
LLC_SET:2048
LLC_WAY:16
LLC SLICES:8
LLC_RQ_SIZE:64
LLC_WQ_SIZE:64
LLC_PQ_SIZE:32
LLC_MSHR_SIZE:64

Interconnect OFF
Attacker deprioritize is: OFF
Off-chip DRAM Size: 8192 MB Channels: 2 Width: 64-bit Data Rate: 3200 MT/s
PAGE SIZE in KB: 4.000000 
PAGE SIZE in MB: 0.003906 
PAGE offset in bits: 12 
CEASER-S_LLC:0
MIRAGE : 0
CEASER_LATENCY:3
REMAP : OFF
Partitions : 1
Multi-Step : OFF
BFS : OFF

CPU 0 runs /home/anubhav/spec_2017/623.xalancbmk_s-202B.champsimtrace.xz
CPU 1 runs /home/anubhav/spec_2017/623.xalancbmk_s-202B.champsimtrace.xz
CPU 2 runs /home/anubhav/spec_2017/623.xalancbmk_s-202B.champsimtrace.xz
CPU 3 runs /home/anubhav/spec_2017/623.xalancbmk_s-202B.champsimtrace.xz
CPU 4 runs /home/anubhav/spec_2017/623.xalancbmk_s-202B.champsimtrace.xz
CPU 5 runs /home/anubhav/spec_2017/623.xalancbmk_s-202B.champsimtrace.xz
CPU 6 runs /home/anubhav/spec_2017/623.xalancbmk_s-202B.champsimtrace.xz
CPU 7 runs /home/anubhav/spec_2017/623.xalancbmk_s-202B.champsimtrace.xz
CPU 0 Bimodal branch predictor
Initialize Hawkeye state
Initialize Hawkeye state
Initialize Hawkeye state
Initialize Hawkeye state
Initialize Hawkeye state
Initialize Hawkeye state
Initialize Hawkeye state
Initialize Hawkeye state
CPU 1 Bimodal branch predictor
Initialize Hawkeye state
Initialize Hawkeye state
Initialize Hawkeye state
Initialize Hawkeye state
Initialize Hawkeye state
Initialize Hawkeye state
Initialize Hawkeye state
Initialize Hawkeye state
CPU 2 Bimodal branch predictor
Initialize Hawkeye state
Initialize Hawkeye state
Initialize Hawkeye state
Initialize Hawkeye state
Initialize Hawkeye state
Initialize Hawkeye state
Initialize Hawkeye state
Initialize Hawkeye state
CPU 3 Bimodal branch predictor
Initialize Hawkeye state
Initialize Hawkeye state
Initialize Hawkeye state
Initialize Hawkeye state
Initialize Hawkeye state
Initialize Hawkeye state
Initialize Hawkeye state
Initialize Hawkeye state
CPU 4 Bimodal branch predictor
Initialize Hawkeye state
Initialize Hawkeye state
Initialize Hawkeye state
Initialize Hawkeye state
Initialize Hawkeye state
Initialize Hawkeye state
Initialize Hawkeye state
Initialize Hawkeye state
CPU 5 Bimodal branch predictor
Initialize Hawkeye state
Initialize Hawkeye state
Initialize Hawkeye state
Initialize Hawkeye state
Initialize Hawkeye state
Initialize Hawkeye state
Initialize Hawkeye state
Initialize Hawkeye state
CPU 6 Bimodal branch predictor
Initialize Hawkeye state
Initialize Hawkeye state
Initialize Hawkeye state
Initialize Hawkeye state
Initialize Hawkeye state
Initialize Hawkeye state
Initialize Hawkeye state
Initialize Hawkeye state
CPU 7 Bimodal branch predictor
Initialize Hawkeye state
Initialize Hawkeye state
Initialize Hawkeye state
Initialize Hawkeye state
Initialize Hawkeye state
Initialize Hawkeye state
Initialize Hawkeye state
Initialize Hawkeye state
Heartbeat CPU 0 instructions: 10000000 cycles: 7137672 heartbeat IPC: 1.40102 cumulative IPC: 1.40102 (Simulation time: 2 hr 24 min 28 sec) 
 Total Blocks : 262144 Invalid Blocks : 343
Heartbeat CPU 1 instructions: 10000000 cycles: 7137690 heartbeat IPC: 1.40101 cumulative IPC: 1.40101 (Simulation time: 2 hr 24 min 33 sec) 
 Total Blocks : 262144 Invalid Blocks : 343
Heartbeat CPU 2 instructions: 10000000 cycles: 7137696 heartbeat IPC: 1.40101 cumulative IPC: 1.40101 (Simulation time: 2 hr 24 min 33 sec) 
 Total Blocks : 262144 Invalid Blocks : 343
Heartbeat CPU 4 instructions: 10000000 cycles: 7137702 heartbeat IPC: 1.40101 cumulative IPC: 1.40101 (Simulation time: 2 hr 24 min 33 sec) 
 Total Blocks : 262144 Invalid Blocks : 343
Heartbeat CPU 3 instructions: 10000000 cycles: 7137707 heartbeat IPC: 1.40101 cumulative IPC: 1.40101 (Simulation time: 2 hr 24 min 33 sec) 
 Total Blocks : 262144 Invalid Blocks : 343
Heartbeat CPU 5 instructions: 10000000 cycles: 7137720 heartbeat IPC: 1.40101 cumulative IPC: 1.40101 (Simulation time: 2 hr 24 min 33 sec) 
 Total Blocks : 262144 Invalid Blocks : 343
Heartbeat CPU 6 instructions: 10000000 cycles: 7137727 heartbeat IPC: 1.40101 cumulative IPC: 1.40101 (Simulation time: 2 hr 24 min 33 sec) 
 Total Blocks : 262144 Invalid Blocks : 343
Heartbeat CPU 7 instructions: 10000000 cycles: 7137732 heartbeat IPC: 1.40101 cumulative IPC: 1.40101 (Simulation time: 2 hr 24 min 33 sec) 
 Total Blocks : 262144 Invalid Blocks : 343
Heartbeat CPU 0 instructions: 20000001 cycles: 14276972 heartbeat IPC: 1.4007 cumulative IPC: 1.40086 (Simulation time: 4 hr 36 min 55 sec) 
 Total Blocks : 262144 Invalid Blocks : 0
Heartbeat CPU 1 instructions: 20000001 cycles: 14276977 heartbeat IPC: 1.4007 cumulative IPC: 1.40086 (Simulation time: 4 hr 37 min 2 sec) 
 Total Blocks : 262144 Invalid Blocks : 0
Heartbeat CPU 2 instructions: 20000001 cycles: 14276987 heartbeat IPC: 1.4007 cumulative IPC: 1.40086 (Simulation time: 4 hr 37 min 2 sec) 
 Total Blocks : 262144 Invalid Blocks : 0
Heartbeat CPU 3 instructions: 20000001 cycles: 14276993 heartbeat IPC: 1.4007 cumulative IPC: 1.40086 (Simulation time: 4 hr 37 min 2 sec) 
 Total Blocks : 262144 Invalid Blocks : 0
Heartbeat CPU 4 instructions: 20000001 cycles: 14276996 heartbeat IPC: 1.4007 cumulative IPC: 1.40085 (Simulation time: 4 hr 37 min 2 sec) 
 Total Blocks : 262144 Invalid Blocks : 0
Heartbeat CPU 6 instructions: 20000001 cycles: 14277009 heartbeat IPC: 1.4007 cumulative IPC: 1.40085 (Simulation time: 4 hr 37 min 3 sec) 
 Total Blocks : 262144 Invalid Blocks : 0
Heartbeat CPU 5 instructions: 20000001 cycles: 14277022 heartbeat IPC: 1.4007 cumulative IPC: 1.40085 (Simulation time: 4 hr 37 min 3 sec) 
 Total Blocks : 262144 Invalid Blocks : 0
Heartbeat CPU 7 instructions: 20000001 cycles: 14277037 heartbeat IPC: 1.4007 cumulative IPC: 1.40085 (Simulation time: 4 hr 37 min 3 sec) 
 Total Blocks : 262144 Invalid Blocks : 0
Heartbeat CPU 2 instructions: 30000001 cycles: 21400638 heartbeat IPC: 1.40377 cumulative IPC: 1.40183 (Simulation time: 6 hr 42 min 9 sec) 
 Total Blocks : 262144 Invalid Blocks : 0
Heartbeat CPU 0 instructions: 30000001 cycles: 21400644 heartbeat IPC: 1.40377 cumulative IPC: 1.40183 (Simulation time: 6 hr 42 min 15 sec) 
 Total Blocks : 262144 Invalid Blocks : 0
Heartbeat CPU 4 instructions: 30000001 cycles: 21400658 heartbeat IPC: 1.40377 cumulative IPC: 1.40183 (Simulation time: 6 hr 42 min 15 sec) 
 Total Blocks : 262144 Invalid Blocks : 0
Heartbeat CPU 1 instructions: 30000001 cycles: 21400663 heartbeat IPC: 1.40377 cumulative IPC: 1.40183 (Simulation time: 6 hr 42 min 15 sec) 
 Total Blocks : 262144 Invalid Blocks : 0
Heartbeat CPU 6 instructions: 30000001 cycles: 21400665 heartbeat IPC: 1.40377 cumulative IPC: 1.40183 (Simulation time: 6 hr 42 min 15 sec) 
 Total Blocks : 262144 Invalid Blocks : 0
Heartbeat CPU 3 instructions: 30000001 cycles: 21400668 heartbeat IPC: 1.40377 cumulative IPC: 1.40183 (Simulation time: 6 hr 42 min 15 sec) 
 Total Blocks : 262144 Invalid Blocks : 0
Heartbeat CPU 5 instructions: 30000001 cycles: 21400696 heartbeat IPC: 1.40377 cumulative IPC: 1.40182 (Simulation time: 6 hr 42 min 15 sec) 
 Total Blocks : 262144 Invalid Blocks : 0
Heartbeat CPU 7 instructions: 30000001 cycles: 21400715 heartbeat IPC: 1.40377 cumulative IPC: 1.40182 (Simulation time: 6 hr 42 min 15 sec) 
 Total Blocks : 262144 Invalid Blocks : 0
Heartbeat CPU 0 instructions: 40000002 cycles: 28556422 heartbeat IPC: 1.39747 cumulative IPC: 1.40074 (Simulation time: 8 hr 40 min 54 sec) 
 Total Blocks : 262144 Invalid Blocks : 0
Heartbeat CPU 2 instructions: 40000002 cycles: 28556428 heartbeat IPC: 1.39747 cumulative IPC: 1.40074 (Simulation time: 8 hr 41 min 0 sec) 
 Total Blocks : 262144 Invalid Blocks : 0
Heartbeat CPU 1 instructions: 40000002 cycles: 28556439 heartbeat IPC: 1.39747 cumulative IPC: 1.40073 (Simulation time: 8 hr 41 min 0 sec) 
 Total Blocks : 262144 Invalid Blocks : 0
Heartbeat CPU 3 instructions: 40000002 cycles: 28556458 heartbeat IPC: 1.39747 cumulative IPC: 1.40073 (Simulation time: 8 hr 41 min 0 sec) 
 Total Blocks : 262144 Invalid Blocks : 0
Heartbeat CPU 4 instructions: 40000002 cycles: 28556458 heartbeat IPC: 1.39747 cumulative IPC: 1.40073 (Simulation time: 8 hr 41 min 0 sec) 
 Total Blocks : 262144 Invalid Blocks : 0
Heartbeat CPU 6 instructions: 40000002 cycles: 28556481 heartbeat IPC: 1.39746 cumulative IPC: 1.40073 (Simulation time: 8 hr 41 min 0 sec) 
 Total Blocks : 262144 Invalid Blocks : 0
Heartbeat CPU 5 instructions: 40000002 cycles: 28556508 heartbeat IPC: 1.39747 cumulative IPC: 1.40073 (Simulation time: 8 hr 41 min 0 sec) 
 Total Blocks : 262144 Invalid Blocks : 0
Heartbeat CPU 7 instructions: 40000002 cycles: 28556517 heartbeat IPC: 1.39747 cumulative IPC: 1.40073 (Simulation time: 8 hr 41 min 0 sec) 
 Total Blocks : 262144 Invalid Blocks : 0
Heartbeat CPU 0 instructions: 50000000 cycles: 35662565 heartbeat IPC: 1.40723 cumulative IPC: 1.40203 (Simulation time: 10 hr 34 min 52 sec) 
 Total Blocks : 262144 Invalid Blocks : 0
Heartbeat CPU 1 instructions: 50000000 cycles: 35662567 heartbeat IPC: 1.40724 cumulative IPC: 1.40203 (Simulation time: 10 hr 34 min 56 sec) 
 Total Blocks : 262144 Invalid Blocks : 0
Heartbeat CPU 2 instructions: 50000000 cycles: 35662573 heartbeat IPC: 1.40723 cumulative IPC: 1.40203 (Simulation time: 10 hr 34 min 56 sec) 
 Total Blocks : 262144 Invalid Blocks : 0
Heartbeat CPU 4 instructions: 50000000 cycles: 35662580 heartbeat IPC: 1.40724 cumulative IPC: 1.40203 (Simulation time: 10 hr 34 min 56 sec) 
 Total Blocks : 262144 Invalid Blocks : 0
Heartbeat CPU 3 instructions: 50000000 cycles: 35662588 heartbeat IPC: 1.40724 cumulative IPC: 1.40203 (Simulation time: 10 hr 34 min 56 sec) 
 Total Blocks : 262144 Invalid Blocks : 0
Heartbeat CPU 6 instructions: 50000000 cycles: 35662603 heartbeat IPC: 1.40724 cumulative IPC: 1.40203 (Simulation time: 10 hr 34 min 56 sec) 
 Total Blocks : 262144 Invalid Blocks : 0
Heartbeat CPU 5 instructions: 50000000 cycles: 35662658 heartbeat IPC: 1.40723 cumulative IPC: 1.40203 (Simulation time: 10 hr 34 min 56 sec) 
 Total Blocks : 262144 Invalid Blocks : 0
Heartbeat CPU 7 instructions: 50000000 cycles: 35662659 heartbeat IPC: 1.40723 cumulative IPC: 1.40203 (Simulation time: 10 hr 34 min 56 sec) 
 Total Blocks : 262144 Invalid Blocks : 0
Heartbeat CPU 0 instructions: 60000003 cycles: 42773397 heartbeat IPC: 1.40631 cumulative IPC: 1.40274 (Simulation time: 12 hr 22 min 49 sec) 
 Total Blocks : 262144 Invalid Blocks : 0
Heartbeat CPU 1 instructions: 60000003 cycles: 42773399 heartbeat IPC: 1.40631 cumulative IPC: 1.40274 (Simulation time: 12 hr 22 min 55 sec) 
 Total Blocks : 262144 Invalid Blocks : 0
Heartbeat CPU 2 instructions: 60000003 cycles: 42773426 heartbeat IPC: 1.4063 cumulative IPC: 1.40274 (Simulation time: 12 hr 22 min 55 sec) 
 Total Blocks : 262144 Invalid Blocks : 0
Heartbeat CPU 3 instructions: 60000003 cycles: 42773441 heartbeat IPC: 1.4063 cumulative IPC: 1.40274 (Simulation time: 12 hr 22 min 55 sec) 
 Total Blocks : 262144 Invalid Blocks : 0
Heartbeat CPU 4 instructions: 60000003 cycles: 42773449 heartbeat IPC: 1.4063 cumulative IPC: 1.40274 (Simulation time: 12 hr 22 min 55 sec) 
 Total Blocks : 262144 Invalid Blocks : 0
Heartbeat CPU 6 instructions: 60000003 cycles: 42773467 heartbeat IPC: 1.4063 cumulative IPC: 1.40274 (Simulation time: 12 hr 22 min 56 sec) 
 Total Blocks : 262144 Invalid Blocks : 0
Heartbeat CPU 5 instructions: 60000003 cycles: 42773498 heartbeat IPC: 1.4063 cumulative IPC: 1.40274 (Simulation time: 12 hr 22 min 56 sec) 
 Total Blocks : 262144 Invalid Blocks : 0
Heartbeat CPU 7 instructions: 60000003 cycles: 42773512 heartbeat IPC: 1.4063 cumulative IPC: 1.40274 (Simulation time: 12 hr 22 min 56 sec) 
 Total Blocks : 262144 Invalid Blocks : 0
Heartbeat CPU 0 instructions: 70000003 cycles: 49881013 heartbeat IPC: 1.40694 cumulative IPC: 1.40334 (Simulation time: 14 hr 0 min 13 sec) 
 Total Blocks : 262144 Invalid Blocks : 0
Heartbeat CPU 1 instructions: 70000003 cycles: 49881017 heartbeat IPC: 1.40694 cumulative IPC: 1.40334 (Simulation time: 14 hr 0 min 17 sec) 
 Total Blocks : 262144 Invalid Blocks : 0
Heartbeat CPU 2 instructions: 70000003 cycles: 49881033 heartbeat IPC: 1.40694 cumulative IPC: 1.40334 (Simulation time: 14 hr 0 min 17 sec) 
 Total Blocks : 262144 Invalid Blocks : 0
Heartbeat CPU 3 instructions: 70000003 cycles: 49881035 heartbeat IPC: 1.40695 cumulative IPC: 1.40334 (Simulation time: 14 hr 0 min 17 sec) 
 Total Blocks : 262144 Invalid Blocks : 0
Heartbeat CPU 4 instructions: 70000003 cycles: 49881047 heartbeat IPC: 1.40695 cumulative IPC: 1.40334 (Simulation time: 14 hr 0 min 17 sec) 
 Total Blocks : 262144 Invalid Blocks : 0
Heartbeat CPU 6 instructions: 70000003 cycles: 49881098 heartbeat IPC: 1.40694 cumulative IPC: 1.40334 (Simulation time: 14 hr 0 min 17 sec) 
 Total Blocks : 262144 Invalid Blocks : 0
Heartbeat CPU 5 instructions: 70000003 cycles: 49881134 heartbeat IPC: 1.40694 cumulative IPC: 1.40334 (Simulation time: 14 hr 0 min 17 sec) 
 Total Blocks : 262144 Invalid Blocks : 0
Heartbeat CPU 7 instructions: 70000003 cycles: 49881144 heartbeat IPC: 1.40694 cumulative IPC: 1.40334 (Simulation time: 14 hr 0 min 17 sec) 
 Total Blocks : 262144 Invalid Blocks : 0
Heartbeat CPU 1 instructions: 80000002 cycles: 56988419 heartbeat IPC: 1.40698 cumulative IPC: 1.40379 (Simulation time: 15 hr 32 min 27 sec) 
 Total Blocks : 262144 Invalid Blocks : 0
Heartbeat CPU 0 instructions: 80000002 cycles: 56988453 heartbeat IPC: 1.40698 cumulative IPC: 1.40379 (Simulation time: 15 hr 32 min 30 sec) 
 Total Blocks : 262144 Invalid Blocks : 0
Heartbeat CPU 4 instructions: 80000002 cycles: 56988458 heartbeat IPC: 1.40698 cumulative IPC: 1.40379 (Simulation time: 15 hr 32 min 30 sec) 
 Total Blocks : 262144 Invalid Blocks : 0
Heartbeat CPU 2 instructions: 80000002 cycles: 56988467 heartbeat IPC: 1.40698 cumulative IPC: 1.40379 (Simulation time: 15 hr 32 min 30 sec) 
 Total Blocks : 262144 Invalid Blocks : 0
Heartbeat CPU 3 instructions: 80000002 cycles: 56988480 heartbeat IPC: 1.40698 cumulative IPC: 1.40379 (Simulation time: 15 hr 32 min 30 sec) 
 Total Blocks : 262144 Invalid Blocks : 0
Heartbeat CPU 6 instructions: 80000002 cycles: 56988530 heartbeat IPC: 1.40698 cumulative IPC: 1.40379 (Simulation time: 15 hr 32 min 30 sec) 
 Total Blocks : 262144 Invalid Blocks : 0
Heartbeat CPU 7 instructions: 80000002 cycles: 56988543 heartbeat IPC: 1.40698 cumulative IPC: 1.40379 (Simulation time: 15 hr 32 min 30 sec) 
 Total Blocks : 262144 Invalid Blocks : 0
Heartbeat CPU 5 instructions: 80000002 cycles: 56988557 heartbeat IPC: 1.40698 cumulative IPC: 1.40379 (Simulation time: 15 hr 32 min 30 sec) 
 Total Blocks : 262144 Invalid Blocks : 0
Heartbeat CPU 1 instructions: 90000000 cycles: 64128515 heartbeat IPC: 1.40054 cumulative IPC: 1.40343 (Simulation time: 16 hr 59 min 11 sec) 
 Total Blocks : 262144 Invalid Blocks : 0
Heartbeat CPU 0 instructions: 90000000 cycles: 64128530 heartbeat IPC: 1.40054 cumulative IPC: 1.40343 (Simulation time: 16 hr 59 min 24 sec) 
 Total Blocks : 262144 Invalid Blocks : 0
Heartbeat CPU 2 instructions: 90000000 cycles: 64128538 heartbeat IPC: 1.40055 cumulative IPC: 1.40343 (Simulation time: 16 hr 59 min 24 sec) 
 Total Blocks : 262144 Invalid Blocks : 0
Heartbeat CPU 3 instructions: 90000000 cycles: 64128550 heartbeat IPC: 1.40055 cumulative IPC: 1.40343 (Simulation time: 16 hr 59 min 24 sec) 
 Total Blocks : 262144 Invalid Blocks : 0
Heartbeat CPU 4 instructions: 90000000 cycles: 64128562 heartbeat IPC: 1.40054 cumulative IPC: 1.40343 (Simulation time: 16 hr 59 min 24 sec) 
 Total Blocks : 262144 Invalid Blocks : 0
Heartbeat CPU 6 instructions: 90000000 cycles: 64128599 heartbeat IPC: 1.40055 cumulative IPC: 1.40343 (Simulation time: 16 hr 59 min 24 sec) 
 Total Blocks : 262144 Invalid Blocks : 0
Heartbeat CPU 7 instructions: 90000000 cycles: 64128614 heartbeat IPC: 1.40055 cumulative IPC: 1.40343 (Simulation time: 16 hr 59 min 24 sec) 
 Total Blocks : 262144 Invalid Blocks : 0
Heartbeat CPU 5 instructions: 90000000 cycles: 64128627 heartbeat IPC: 1.40055 cumulative IPC: 1.40343 (Simulation time: 16 hr 59 min 24 sec) 
 Total Blocks : 262144 Invalid Blocks : 0
Heartbeat CPU 1 instructions: 100000003 cycles: 71263891 heartbeat IPC: 1.40147 cumulative IPC: 1.40324 (Simulation time: 18 hr 20 min 50 sec) 
 Total Blocks : 262144 Invalid Blocks : 0
Heartbeat CPU 0 instructions: 100000003 cycles: 71263914 heartbeat IPC: 1.40147 cumulative IPC: 1.40323 (Simulation time: 18 hr 20 min 53 sec) 
 Total Blocks : 262144 Invalid Blocks : 0
Heartbeat CPU 2 instructions: 100000003 cycles: 71263942 heartbeat IPC: 1.40146 cumulative IPC: 1.40323 (Simulation time: 18 hr 20 min 54 sec) 
 Total Blocks : 262144 Invalid Blocks : 0
Heartbeat CPU 3 instructions: 100000003 cycles: 71263964 heartbeat IPC: 1.40146 cumulative IPC: 1.40323 (Simulation time: 18 hr 20 min 54 sec) 
 Total Blocks : 262144 Invalid Blocks : 0
Heartbeat CPU 4 instructions: 100000003 cycles: 71263967 heartbeat IPC: 1.40146 cumulative IPC: 1.40323 (Simulation time: 18 hr 20 min 54 sec) 
 Total Blocks : 262144 Invalid Blocks : 0
Heartbeat CPU 6 instructions: 100000003 cycles: 71263973 heartbeat IPC: 1.40147 cumulative IPC: 1.40323 (Simulation time: 18 hr 20 min 54 sec) 
 Total Blocks : 262144 Invalid Blocks : 0
Heartbeat CPU 7 instructions: 100000003 cycles: 71264007 heartbeat IPC: 1.40146 cumulative IPC: 1.40323 (Simulation time: 18 hr 20 min 54 sec) 
 Total Blocks : 262144 Invalid Blocks : 0
Heartbeat CPU 5 instructions: 100000003 cycles: 71264025 heartbeat IPC: 1.40146 cumulative IPC: 1.40323 (Simulation time: 18 hr 20 min 54 sec) 
 Total Blocks : 262144 Invalid Blocks : 0
Heartbeat CPU 1 instructions: 110000000 cycles: 78418744 heartbeat IPC: 1.39765 cumulative IPC: 1.40273 (Simulation time: 19 hr 39 min 15 sec) 
 Total Blocks : 262144 Invalid Blocks : 0
Heartbeat CPU 0 instructions: 110000000 cycles: 78418822 heartbeat IPC: 1.39764 cumulative IPC: 1.40272 (Simulation time: 19 hr 39 min 37 sec) 
 Total Blocks : 262144 Invalid Blocks : 0
Heartbeat CPU 2 instructions: 110000000 cycles: 78418827 heartbeat IPC: 1.39765 cumulative IPC: 1.40272 (Simulation time: 19 hr 39 min 37 sec) 
 Total Blocks : 262144 Invalid Blocks : 0
Heartbeat CPU 4 instructions: 110000000 cycles: 78418832 heartbeat IPC: 1.39765 cumulative IPC: 1.40272 (Simulation time: 19 hr 39 min 37 sec) 
 Total Blocks : 262144 Invalid Blocks : 0
Heartbeat CPU 3 instructions: 110000000 cycles: 78418849 heartbeat IPC: 1.39765 cumulative IPC: 1.40272 (Simulation time: 19 hr 39 min 37 sec) 
 Total Blocks : 262144 Invalid Blocks : 0
Heartbeat CPU 6 instructions: 110000000 cycles: 78418851 heartbeat IPC: 1.39765 cumulative IPC: 1.40272 (Simulation time: 19 hr 39 min 37 sec) 
 Total Blocks : 262144 Invalid Blocks : 0
Heartbeat CPU 5 instructions: 110000000 cycles: 78418899 heartbeat IPC: 1.39765 cumulative IPC: 1.40272 (Simulation time: 19 hr 39 min 37 sec) 
 Total Blocks : 262144 Invalid Blocks : 0
Heartbeat CPU 7 instructions: 110000000 cycles: 78418914 heartbeat IPC: 1.39764 cumulative IPC: 1.40272 (Simulation time: 19 hr 39 min 37 sec) 
 Total Blocks : 262144 Invalid Blocks : 0
Heartbeat CPU 1 instructions: 120000002 cycles: 85544525 heartbeat IPC: 1.40336 cumulative IPC: 1.40278 (Simulation time: 20 hr 55 min 52 sec) 
 Total Blocks : 262144 Invalid Blocks : 0
Heartbeat CPU 0 instructions: 120000002 cycles: 85544594 heartbeat IPC: 1.40336 cumulative IPC: 1.40278 (Simulation time: 20 hr 55 min 55 sec) 
 Total Blocks : 262144 Invalid Blocks : 0
Heartbeat CPU 2 instructions: 120000002 cycles: 85544618 heartbeat IPC: 1.40335 cumulative IPC: 1.40278 (Simulation time: 20 hr 55 min 55 sec) 
 Total Blocks : 262144 Invalid Blocks : 0
Heartbeat CPU 3 instructions: 120000002 cycles: 85544632 heartbeat IPC: 1.40335 cumulative IPC: 1.40278 (Simulation time: 20 hr 55 min 55 sec) 
 Total Blocks : 262144 Invalid Blocks : 0
Heartbeat CPU 4 instructions: 120000002 cycles: 85544641 heartbeat IPC: 1.40335 cumulative IPC: 1.40278 (Simulation time: 20 hr 55 min 55 sec) 
 Total Blocks : 262144 Invalid Blocks : 0
Heartbeat CPU 6 instructions: 120000002 cycles: 85544645 heartbeat IPC: 1.40335 cumulative IPC: 1.40278 (Simulation time: 20 hr 55 min 55 sec) 
 Total Blocks : 262144 Invalid Blocks : 0
Heartbeat CPU 5 instructions: 120000002 cycles: 85544674 heartbeat IPC: 1.40336 cumulative IPC: 1.40278 (Simulation time: 20 hr 55 min 55 sec) 
 Total Blocks : 262144 Invalid Blocks : 0
Heartbeat CPU 7 instructions: 120000002 cycles: 85544698 heartbeat IPC: 1.40335 cumulative IPC: 1.40278 (Simulation time: 20 hr 55 min 55 sec) 
 Total Blocks : 262144 Invalid Blocks : 0
Heartbeat CPU 1 instructions: 130000002 cycles: 92659293 heartbeat IPC: 1.40553 cumulative IPC: 1.40299 (Simulation time: 22 hr 9 min 39 sec) 
 Total Blocks : 262144 Invalid Blocks : 0
Heartbeat CPU 0 instructions: 130000002 cycles: 92659336 heartbeat IPC: 1.40553 cumulative IPC: 1.40299 (Simulation time: 22 hr 10 min 0 sec) 
 Total Blocks : 262144 Invalid Blocks : 0
Heartbeat CPU 3 instructions: 130000002 cycles: 92659389 heartbeat IPC: 1.40553 cumulative IPC: 1.40299 (Simulation time: 22 hr 10 min 0 sec) 
 Total Blocks : 262144 Invalid Blocks : 0
Heartbeat CPU 2 instructions: 130000002 cycles: 92659410 heartbeat IPC: 1.40552 cumulative IPC: 1.40299 (Simulation time: 22 hr 10 min 0 sec) 
 Total Blocks : 262144 Invalid Blocks : 0
Heartbeat CPU 4 instructions: 130000002 cycles: 92659411 heartbeat IPC: 1.40553 cumulative IPC: 1.40299 (Simulation time: 22 hr 10 min 0 sec) 
 Total Blocks : 262144 Invalid Blocks : 0
Heartbeat CPU 6 instructions: 130000002 cycles: 92659429 heartbeat IPC: 1.40552 cumulative IPC: 1.40299 (Simulation time: 22 hr 10 min 0 sec) 
 Total Blocks : 262144 Invalid Blocks : 0
Heartbeat CPU 5 instructions: 130000002 cycles: 92659443 heartbeat IPC: 1.40553 cumulative IPC: 1.40299 (Simulation time: 22 hr 10 min 0 sec) 
 Total Blocks : 262144 Invalid Blocks : 0
Heartbeat CPU 7 instructions: 130000002 cycles: 92659460 heartbeat IPC: 1.40553 cumulative IPC: 1.40299 (Simulation time: 22 hr 10 min 1 sec) 
 Total Blocks : 262144 Invalid Blocks : 0
Heartbeat CPU 1 instructions: 140000000 cycles: 99739588 heartbeat IPC: 1.41237 cumulative IPC: 1.40366 (Simulation time: 23 hr 20 min 10 sec) 
 Total Blocks : 262144 Invalid Blocks : 0
Heartbeat CPU 0 instructions: 140000000 cycles: 99739651 heartbeat IPC: 1.41237 cumulative IPC: 1.40365 (Simulation time: 23 hr 20 min 12 sec) 
 Total Blocks : 262144 Invalid Blocks : 0
Heartbeat CPU 3 instructions: 140000000 cycles: 99739679 heartbeat IPC: 1.41237 cumulative IPC: 1.40365 (Simulation time: 23 hr 20 min 12 sec) 
 Total Blocks : 262144 Invalid Blocks : 0
Heartbeat CPU 2 instructions: 140000000 cycles: 99739708 heartbeat IPC: 1.41237 cumulative IPC: 1.40365 (Simulation time: 23 hr 20 min 12 sec) 
 Total Blocks : 262144 Invalid Blocks : 0
Heartbeat CPU 4 instructions: 140000000 cycles: 99739717 heartbeat IPC: 1.41237 cumulative IPC: 1.40365 (Simulation time: 23 hr 20 min 12 sec) 
 Total Blocks : 262144 Invalid Blocks : 0
Heartbeat CPU 6 instructions: 140000000 cycles: 99739728 heartbeat IPC: 1.41237 cumulative IPC: 1.40365 (Simulation time: 23 hr 20 min 12 sec) 
 Total Blocks : 262144 Invalid Blocks : 0
Heartbeat CPU 5 instructions: 140000000 cycles: 99739740 heartbeat IPC: 1.41237 cumulative IPC: 1.40365 (Simulation time: 23 hr 20 min 12 sec) 
 Total Blocks : 262144 Invalid Blocks : 0
Heartbeat CPU 7 instructions: 140000000 cycles: 99739754 heartbeat IPC: 1.41237 cumulative IPC: 1.40365 (Simulation time: 23 hr 20 min 12 sec) 
 Total Blocks : 262144 Invalid Blocks : 0
Heartbeat CPU 1 instructions: 150000000 cycles: 106847901 heartbeat IPC: 1.4068 cumulative IPC: 1.40386 (Simulation time: 24 hr 27 min 44 sec) 
 Total Blocks : 262144 Invalid Blocks : 0
Heartbeat CPU 0 instructions: 150000000 cycles: 106847938 heartbeat IPC: 1.40681 cumulative IPC: 1.40386 (Simulation time: 24 hr 27 min 46 sec) 
 Total Blocks : 262144 Invalid Blocks : 0
Heartbeat CPU 3 instructions: 150000000 cycles: 106847967 heartbeat IPC: 1.40681 cumulative IPC: 1.40386 (Simulation time: 24 hr 27 min 46 sec) 
 Total Blocks : 262144 Invalid Blocks : 0
Heartbeat CPU 4 instructions: 150000000 cycles: 106848022 heartbeat IPC: 1.40681 cumulative IPC: 1.40386 (Simulation time: 24 hr 27 min 46 sec) 
 Total Blocks : 262144 Invalid Blocks : 0
Heartbeat CPU 2 instructions: 150000000 cycles: 106848025 heartbeat IPC: 1.4068 cumulative IPC: 1.40386 (Simulation time: 24 hr 27 min 46 sec) 
 Total Blocks : 262144 Invalid Blocks : 0
Heartbeat CPU 6 instructions: 150000000 cycles: 106848046 heartbeat IPC: 1.4068 cumulative IPC: 1.40386 (Simulation time: 24 hr 27 min 46 sec) 
 Total Blocks : 262144 Invalid Blocks : 0
Heartbeat CPU 5 instructions: 150000000 cycles: 106848067 heartbeat IPC: 1.4068 cumulative IPC: 1.40386 (Simulation time: 24 hr 27 min 46 sec) 
 Total Blocks : 262144 Invalid Blocks : 0
Heartbeat CPU 7 instructions: 150000000 cycles: 106848069 heartbeat IPC: 1.4068 cumulative IPC: 1.40386 (Simulation time: 24 hr 27 min 46 sec) 
 Total Blocks : 262144 Invalid Blocks : 0
Heartbeat CPU 1 instructions: 160000002 cycles: 113986665 heartbeat IPC: 1.4008 cumulative IPC: 1.40367 (Simulation time: 25 hr 31 min 41 sec) 
 Total Blocks : 262144 Invalid Blocks : 0
Heartbeat CPU 0 instructions: 160000002 cycles: 113986716 heartbeat IPC: 1.4008 cumulative IPC: 1.40367 (Simulation time: 25 hr 31 min 43 sec) 
 Total Blocks : 262144 Invalid Blocks : 0
Heartbeat CPU 3 instructions: 160000002 cycles: 113986747 heartbeat IPC: 1.4008 cumulative IPC: 1.40367 (Simulation time: 25 hr 31 min 43 sec) 
 Total Blocks : 262144 Invalid Blocks : 0
Heartbeat CPU 4 instructions: 160000002 cycles: 113986810 heartbeat IPC: 1.4008 cumulative IPC: 1.40367 (Simulation time: 25 hr 31 min 43 sec) 
 Total Blocks : 262144 Invalid Blocks : 0
Heartbeat CPU 2 instructions: 160000002 cycles: 113986816 heartbeat IPC: 1.4008 cumulative IPC: 1.40367 (Simulation time: 25 hr 31 min 43 sec) 
 Total Blocks : 262144 Invalid Blocks : 0
Heartbeat CPU 6 instructions: 160000002 cycles: 113986829 heartbeat IPC: 1.4008 cumulative IPC: 1.40367 (Simulation time: 25 hr 31 min 43 sec) 
 Total Blocks : 262144 Invalid Blocks : 0
Heartbeat CPU 7 instructions: 160000002 cycles: 113986841 heartbeat IPC: 1.4008 cumulative IPC: 1.40367 (Simulation time: 25 hr 31 min 43 sec) 
 Total Blocks : 262144 Invalid Blocks : 0
Heartbeat CPU 5 instructions: 160000002 cycles: 113986852 heartbeat IPC: 1.4008 cumulative IPC: 1.40367 (Simulation time: 25 hr 31 min 43 sec) 
 Total Blocks : 262144 Invalid Blocks : 0
Heartbeat CPU 1 instructions: 170000001 cycles: 121097679 heartbeat IPC: 1.40627 cumulative IPC: 1.40383 (Simulation time: 26 hr 35 min 44 sec) 
 Total Blocks : 262144 Invalid Blocks : 0
Heartbeat CPU 0 instructions: 170000001 cycles: 121097711 heartbeat IPC: 1.40627 cumulative IPC: 1.40383 (Simulation time: 26 hr 35 min 46 sec) 
 Total Blocks : 262144 Invalid Blocks : 0
Heartbeat CPU 3 instructions: 170000001 cycles: 121097738 heartbeat IPC: 1.40627 cumulative IPC: 1.40382 (Simulation time: 26 hr 35 min 46 sec) 
 Total Blocks : 262144 Invalid Blocks : 0
Heartbeat CPU 2 instructions: 170000001 cycles: 121097816 heartbeat IPC: 1.40627 cumulative IPC: 1.40382 (Simulation time: 26 hr 35 min 46 sec) 
 Total Blocks : 262144 Invalid Blocks : 0
Heartbeat CPU 4 instructions: 170000001 cycles: 121097817 heartbeat IPC: 1.40627 cumulative IPC: 1.40382 (Simulation time: 26 hr 35 min 46 sec) 
 Total Blocks : 262144 Invalid Blocks : 0
Heartbeat CPU 6 instructions: 170000001 cycles: 121097829 heartbeat IPC: 1.40627 cumulative IPC: 1.40382 (Simulation time: 26 hr 35 min 46 sec) 
 Total Blocks : 262144 Invalid Blocks : 0
Heartbeat CPU 7 instructions: 170000001 cycles: 121097878 heartbeat IPC: 1.40626 cumulative IPC: 1.40382 (Simulation time: 26 hr 35 min 46 sec) 
 Total Blocks : 262144 Invalid Blocks : 0
Heartbeat CPU 5 instructions: 170000001 cycles: 121097891 heartbeat IPC: 1.40626 cumulative IPC: 1.40382 (Simulation time: 26 hr 35 min 46 sec) 
 Total Blocks : 262144 Invalid Blocks : 0
Heartbeat CPU 1 instructions: 180000000 cycles: 128187622 heartbeat IPC: 1.41045 cumulative IPC: 1.40419 (Simulation time: 27 hr 37 min 55 sec) 
 Total Blocks : 262144 Invalid Blocks : 0
Heartbeat CPU 0 instructions: 180000000 cycles: 128187664 heartbeat IPC: 1.41045 cumulative IPC: 1.40419 (Simulation time: 27 hr 37 min 57 sec) 
 Total Blocks : 262144 Invalid Blocks : 0
Heartbeat CPU 3 instructions: 180000000 cycles: 128187680 heartbeat IPC: 1.41045 cumulative IPC: 1.40419 (Simulation time: 27 hr 37 min 57 sec) 
 Total Blocks : 262144 Invalid Blocks : 0
Heartbeat CPU 2 instructions: 180000000 cycles: 128187748 heartbeat IPC: 1.41045 cumulative IPC: 1.40419 (Simulation time: 27 hr 37 min 57 sec) 
 Total Blocks : 262144 Invalid Blocks : 0
Heartbeat CPU 4 instructions: 180000000 cycles: 128187804 heartbeat IPC: 1.41044 cumulative IPC: 1.40419 (Simulation time: 27 hr 37 min 57 sec) 
 Total Blocks : 262144 Invalid Blocks : 0
Heartbeat CPU 6 instructions: 180000000 cycles: 128187819 heartbeat IPC: 1.41044 cumulative IPC: 1.40419 (Simulation time: 27 hr 37 min 57 sec) 
 Total Blocks : 262144 Invalid Blocks : 0
Heartbeat CPU 5 instructions: 180000000 cycles: 128187835 heartbeat IPC: 1.41045 cumulative IPC: 1.40419 (Simulation time: 27 hr 37 min 57 sec) 
 Total Blocks : 262144 Invalid Blocks : 0
Heartbeat CPU 7 instructions: 180000000 cycles: 128187845 heartbeat IPC: 1.41044 cumulative IPC: 1.40419 (Simulation time: 27 hr 37 min 57 sec) 
 Total Blocks : 262144 Invalid Blocks : 0
Heartbeat CPU 1 instructions: 190000001 cycles: 135300462 heartbeat IPC: 1.40591 cumulative IPC: 1.40428 (Simulation time: 28 hr 38 min 46 sec) 
 Total Blocks : 262144 Invalid Blocks : 0
Heartbeat CPU 0 instructions: 190000001 cycles: 135300470 heartbeat IPC: 1.40592 cumulative IPC: 1.40428 (Simulation time: 28 hr 38 min 48 sec) 
 Total Blocks : 262144 Invalid Blocks : 0
Heartbeat CPU 3 instructions: 190000001 cycles: 135300474 heartbeat IPC: 1.40592 cumulative IPC: 1.40428 (Simulation time: 28 hr 38 min 48 sec) 
 Total Blocks : 262144 Invalid Blocks : 0
Heartbeat CPU 2 instructions: 190000001 cycles: 135300572 heartbeat IPC: 1.40591 cumulative IPC: 1.40428 (Simulation time: 28 hr 38 min 48 sec) 
 Total Blocks : 262144 Invalid Blocks : 0
Heartbeat CPU 4 instructions: 190000001 cycles: 135300621 heartbeat IPC: 1.40591 cumulative IPC: 1.40428 (Simulation time: 28 hr 38 min 48 sec) 
 Total Blocks : 262144 Invalid Blocks : 0
Heartbeat CPU 6 instructions: 190000001 cycles: 135300640 heartbeat IPC: 1.40591 cumulative IPC: 1.40428 (Simulation time: 28 hr 38 min 48 sec) 
 Total Blocks : 262144 Invalid Blocks : 0
Heartbeat CPU 5 instructions: 190000001 cycles: 135300667 heartbeat IPC: 1.40591 cumulative IPC: 1.40428 (Simulation time: 28 hr 38 min 48 sec) 
 Total Blocks : 262144 Invalid Blocks : 0
Heartbeat CPU 7 instructions: 190000001 cycles: 135300670 heartbeat IPC: 1.40591 cumulative IPC: 1.40428 (Simulation time: 28 hr 38 min 48 sec) 
 Total Blocks : 262144 Invalid Blocks : 0
Heartbeat CPU 1 instructions: 200000002 cycles: 142417864 heartbeat IPC: 1.40501 cumulative IPC: 1.40432 (Simulation time: 29 hr 39 min 28 sec) 
 Total Blocks : 262144 Invalid Blocks : 0
Heartbeat CPU 3 instructions: 200000002 cycles: 142417884 heartbeat IPC: 1.40501 cumulative IPC: 1.40432 (Simulation time: 29 hr 39 min 29 sec) 
 Total Blocks : 262144 Invalid Blocks : 0
Heartbeat CPU 0 instructions: 200000002 cycles: 142417912 heartbeat IPC: 1.405 cumulative IPC: 1.40432 (Simulation time: 29 hr 39 min 29 sec) 
 Total Blocks : 262144 Invalid Blocks : 0
Heartbeat CPU 2 instructions: 200000002 cycles: 142418006 heartbeat IPC: 1.405 cumulative IPC: 1.40432 (Simulation time: 29 hr 39 min 29 sec) 
 Total Blocks : 262144 Invalid Blocks : 0
Heartbeat CPU 6 instructions: 200000002 cycles: 142418043 heartbeat IPC: 1.40501 cumulative IPC: 1.40432 (Simulation time: 29 hr 39 min 29 sec) 
 Total Blocks : 262144 Invalid Blocks : 0
Heartbeat CPU 4 instructions: 200000002 cycles: 142418051 heartbeat IPC: 1.405 cumulative IPC: 1.40432 (Simulation time: 29 hr 39 min 29 sec) 
 Total Blocks : 262144 Invalid Blocks : 0
Heartbeat CPU 5 instructions: 200000002 cycles: 142418089 heartbeat IPC: 1.405 cumulative IPC: 1.40432 (Simulation time: 29 hr 39 min 29 sec) 
 Total Blocks : 262144 Invalid Blocks : 0
Heartbeat CPU 7 instructions: 200000002 cycles: 142418103 heartbeat IPC: 1.405 cumulative IPC: 1.40432 (Simulation time: 29 hr 39 min 29 sec) 
 Total Blocks : 262144 Invalid Blocks : 0

Warmup complete CPU 0 instructions: 200000294 cycles: 142418103 (Simulation time: 29 hr 39 min 30 sec) 
Warmup complete CPU 1 instructions: 200000332 cycles: 142418103 (Simulation time: 29 hr 39 min 30 sec) 
Warmup complete CPU 2 instructions: 200000148 cycles: 142418103 (Simulation time: 29 hr 39 min 30 sec) 
Warmup complete CPU 3 instructions: 200000332 cycles: 142418103 (Simulation time: 29 hr 39 min 30 sec) 
Warmup complete CPU 4 instructions: 200000090 cycles: 142418103 (Simulation time: 29 hr 39 min 30 sec) 
Warmup complete CPU 5 instructions: 200000047 cycles: 142418103 (Simulation time: 29 hr 39 min 30 sec) 
Warmup complete CPU 6 instructions: 200000100 cycles: 142418103 (Simulation time: 29 hr 39 min 30 sec) 
Warmup complete CPU 7 instructions: 200000002 cycles: 142418103 (Simulation time: 29 hr 39 min 30 sec) 

Heartbeat CPU 4 instructions: 210000002 cycles: 162587943 heartbeat IPC: 0.495788 cumulative IPC: 0.495785 (Simulation time: 31 hr 0 min 51 sec) 
 Total Blocks : 262144 Invalid Blocks : 0
Heartbeat CPU 7 instructions: 210000002 cycles: 162597644 heartbeat IPC: 0.495551 cumulative IPC: 0.495551 (Simulation time: 31 hr 0 min 53 sec) 
 Total Blocks : 262144 Invalid Blocks : 0
Heartbeat CPU 2 instructions: 210000002 cycles: 162666933 heartbeat IPC: 0.493853 cumulative IPC: 0.493848 (Simulation time: 31 hr 0 min 59 sec) 
 Total Blocks : 262144 Invalid Blocks : 0
Heartbeat CPU 6 instructions: 210000002 cycles: 162691914 heartbeat IPC: 0.493246 cumulative IPC: 0.493242 (Simulation time: 31 hr 1 min 3 sec) 
 Total Blocks : 262144 Invalid Blocks : 0
Heartbeat CPU 5 instructions: 210000002 cycles: 162753483 heartbeat IPC: 0.491753 cumulative IPC: 0.491752 (Simulation time: 31 hr 1 min 11 sec) 
 Total Blocks : 262144 Invalid Blocks : 0
Heartbeat CPU 3 instructions: 210000002 cycles: 162755974 heartbeat IPC: 0.491688 cumulative IPC: 0.491677 (Simulation time: 31 hr 1 min 12 sec) 
 Total Blocks : 262144 Invalid Blocks : 0
Heartbeat CPU 0 instructions: 210000002 cycles: 162769226 heartbeat IPC: 0.491369 cumulative IPC: 0.491359 (Simulation time: 31 hr 1 min 13 sec) 
 Total Blocks : 262144 Invalid Blocks : 0
Heartbeat CPU 1 instructions: 210000002 cycles: 162809692 heartbeat IPC: 0.490393 cumulative IPC: 0.490382 (Simulation time: 31 hr 1 min 18 sec) 
 Total Blocks : 262144 Invalid Blocks : 0
Heartbeat CPU 7 instructions: 220000000 cycles: 184363272 heartbeat IPC: 0.45944 cumulative IPC: 0.476813 (Simulation time: 32 hr 22 min 48 sec) 
 Total Blocks : 262144 Invalid Blocks : 0
Heartbeat CPU 4 instructions: 220000000 cycles: 184367594 heartbeat IPC: 0.459144 cumulative IPC: 0.476762 (Simulation time: 32 hr 22 min 50 sec) 
 Total Blocks : 262144 Invalid Blocks : 0
Heartbeat CPU 2 instructions: 220000000 cycles: 184400238 heartbeat IPC: 0.460123 cumulative IPC: 0.47639 (Simulation time: 32 hr 22 min 55 sec) 
 Total Blocks : 262144 Invalid Blocks : 0
Heartbeat CPU 6 instructions: 220000000 cycles: 184460287 heartbeat IPC: 0.459382 cumulative IPC: 0.47571 (Simulation time: 32 hr 23 min 0 sec) 
 Total Blocks : 262144 Invalid Blocks : 0
Heartbeat CPU 3 instructions: 220000000 cycles: 184501233 heartbeat IPC: 0.45987 cumulative IPC: 0.475242 (Simulation time: 32 hr 23 min 6 sec) 
 Total Blocks : 262144 Invalid Blocks : 0
Heartbeat CPU 5 instructions: 220000000 cycles: 184510434 heartbeat IPC: 0.459623 cumulative IPC: 0.475145 (Simulation time: 32 hr 23 min 17 sec) 
 Total Blocks : 262144 Invalid Blocks : 0
Heartbeat CPU 0 instructions: 220000000 cycles: 184558411 heartbeat IPC: 0.458943 cumulative IPC: 0.474598 (Simulation time: 32 hr 23 min 26 sec) 
 Total Blocks : 262144 Invalid Blocks : 0
Heartbeat CPU 1 instructions: 220000000 cycles: 184629494 heartbeat IPC: 0.458299 cumulative IPC: 0.473798 (Simulation time: 32 hr 23 min 34 sec) 
 Total Blocks : 262144 Invalid Blocks : 0
Heartbeat CPU 4 instructions: 230000001 cycles: 206006323 heartbeat IPC: 0.462134 cumulative IPC: 0.471784 (Simulation time: 33 hr 43 min 1 sec) 
 Total Blocks : 262144 Invalid Blocks : 0
Heartbeat CPU 7 instructions: 230000001 cycles: 206015227 heartbeat IPC: 0.461852 cumulative IPC: 0.471719 (Simulation time: 33 hr 43 min 4 sec) 
 Total Blocks : 262144 Invalid Blocks : 0
Heartbeat CPU 6 instructions: 230000001 cycles: 206119967 heartbeat IPC: 0.461687 cumulative IPC: 0.470942 (Simulation time: 33 hr 43 min 21 sec) 
 Total Blocks : 262144 Invalid Blocks : 0
Heartbeat CPU 2 instructions: 230000001 cycles: 206128395 heartbeat IPC: 0.460232 cumulative IPC: 0.470879 (Simulation time: 33 hr 43 min 23 sec) 
 Total Blocks : 262144 Invalid Blocks : 0
Heartbeat CPU 5 instructions: 230000001 cycles: 206240902 heartbeat IPC: 0.460183 cumulative IPC: 0.470051 (Simulation time: 33 hr 43 min 54 sec) 
 Total Blocks : 262144 Invalid Blocks : 0
Heartbeat CPU 3 instructions: 230000001 cycles: 206309414 heartbeat IPC: 0.458544 cumulative IPC: 0.469542 (Simulation time: 33 hr 44 min 4 sec) 
 Total Blocks : 262144 Invalid Blocks : 0
Heartbeat CPU 0 instructions: 230000001 cycles: 206414448 heartbeat IPC: 0.45754 cumulative IPC: 0.468772 (Simulation time: 33 hr 44 min 22 sec) 
 Total Blocks : 262144 Invalid Blocks : 0
Heartbeat CPU 1 instructions: 230000001 cycles: 206485837 heartbeat IPC: 0.457533 cumulative IPC: 0.468249 (Simulation time: 33 hr 44 min 31 sec) 
 Total Blocks : 262144 Invalid Blocks : 0
Heartbeat CPU 4 instructions: 240000002 cycles: 226871000 heartbeat IPC: 0.479279 cumulative IPC: 0.473636 (Simulation time: 35 hr 0 min 14 sec) 
 Total Blocks : 262144 Invalid Blocks : 0
Heartbeat CPU 7 instructions: 240000002 cycles: 226894770 heartbeat IPC: 0.478938 cumulative IPC: 0.473504 (Simulation time: 35 hr 0 min 18 sec) 
 Total Blocks : 262144 Invalid Blocks : 0
Heartbeat CPU 6 instructions: 240000002 cycles: 227095438 heartbeat IPC: 0.476747 cumulative IPC: 0.47238 (Simulation time: 35 hr 1 min 12 sec) 
 Total Blocks : 262144 Invalid Blocks : 0
Heartbeat CPU 2 instructions: 240000002 cycles: 227099146 heartbeat IPC: 0.476855 cumulative IPC: 0.472359 (Simulation time: 35 hr 1 min 14 sec) 
 Total Blocks : 262144 Invalid Blocks : 0
Heartbeat CPU 5 instructions: 240000002 cycles: 227278639 heartbeat IPC: 0.475336 cumulative IPC: 0.471361 (Simulation time: 35 hr 2 min 2 sec) 
 Total Blocks : 262144 Invalid Blocks : 0
Heartbeat CPU 3 instructions: 240000002 cycles: 227347442 heartbeat IPC: 0.47533 cumulative IPC: 0.470976 (Simulation time: 35 hr 2 min 16 sec) 
 Total Blocks : 262144 Invalid Blocks : 0
Heartbeat CPU 0 instructions: 240000002 cycles: 227485335 heartbeat IPC: 0.474589 cumulative IPC: 0.470213 (Simulation time: 35 hr 2 min 42 sec) 
 Total Blocks : 262144 Invalid Blocks : 0
Heartbeat CPU 1 instructions: 240000002 cycles: 227548071 heartbeat IPC: 0.474783 cumulative IPC: 0.469866 (Simulation time: 35 hr 2 min 52 sec) 
 Total Blocks : 262144 Invalid Blocks : 0
Heartbeat CPU 4 instructions: 250000000 cycles: 248720274 heartbeat IPC: 0.457681 cumulative IPC: 0.470356 (Simulation time: 36 hr 16 min 30 sec) 
 Total Blocks : 262144 Invalid Blocks : 0
Heartbeat CPU 7 instructions: 250000000 cycles: 248750660 heartbeat IPC: 0.457542 cumulative IPC: 0.470223 (Simulation time: 36 hr 16 min 51 sec) 
 Total Blocks : 262144 Invalid Blocks : 0
Heartbeat CPU 6 instructions: 250000000 cycles: 249078596 heartbeat IPC: 0.454894 cumulative IPC: 0.468776 (Simulation time: 36 hr 17 min 49 sec) 
 Total Blocks : 262144 Invalid Blocks : 0
Heartbeat CPU 2 instructions: 250000000 cycles: 249116537 heartbeat IPC: 0.454186 cumulative IPC: 0.468609 (Simulation time: 36 hr 18 min 8 sec) 
 Total Blocks : 262144 Invalid Blocks : 0
Heartbeat CPU 5 instructions: 250000000 cycles: 249372649 heartbeat IPC: 0.452611 cumulative IPC: 0.467488 (Simulation time: 36 hr 18 min 46 sec) 
 Total Blocks : 262144 Invalid Blocks : 0
Heartbeat CPU 3 instructions: 250000000 cycles: 249442755 heartbeat IPC: 0.452585 cumulative IPC: 0.467179 (Simulation time: 36 hr 18 min 55 sec) 
 Total Blocks : 262144 Invalid Blocks : 0
Heartbeat CPU 0 instructions: 250000000 cycles: 249553731 heartbeat IPC: 0.453137 cumulative IPC: 0.466695 (Simulation time: 36 hr 19 min 28 sec) 
 Total Blocks : 262144 Invalid Blocks : 0
Heartbeat CPU 1 instructions: 250000000 cycles: 249564970 heartbeat IPC: 0.454196 cumulative IPC: 0.466646 (Simulation time: 36 hr 19 min 31 sec) 
 Total Blocks : 262144 Invalid Blocks : 0
Heartbeat CPU 4 instructions: 260000001 cycles: 269891379 heartbeat IPC: 0.472342 cumulative IPC: 0.470686 (Simulation time: 37 hr 35 min 9 sec) 
 Total Blocks : 262144 Invalid Blocks : 0
Heartbeat CPU 7 instructions: 260000001 cycles: 269969628 heartbeat IPC: 0.471276 cumulative IPC: 0.470398 (Simulation time: 37 hr 35 min 32 sec) 
 Total Blocks : 262144 Invalid Blocks : 0
Heartbeat CPU 6 instructions: 260000001 cycles: 270254065 heartbeat IPC: 0.472245 cumulative IPC: 0.469351 (Simulation time: 37 hr 36 min 18 sec) 
 Total Blocks : 262144 Invalid Blocks : 0
Heartbeat CPU 2 instructions: 260000001 cycles: 270280027 heartbeat IPC: 0.472512 cumulative IPC: 0.469255 (Simulation time: 37 hr 36 min 21 sec) 
 Total Blocks : 262144 Invalid Blocks : 0
Heartbeat CPU 3 instructions: 260000001 cycles: 270661763 heartbeat IPC: 0.471276 cumulative IPC: 0.467857 (Simulation time: 37 hr 37 min 33 sec) 
 Total Blocks : 262144 Invalid Blocks : 0
Heartbeat CPU 5 instructions: 260000001 cycles: 270666726 heartbeat IPC: 0.469614 cumulative IPC: 0.467841 (Simulation time: 37 hr 37 min 36 sec) 
 Total Blocks : 262144 Invalid Blocks : 0
Heartbeat CPU 0 instructions: 260000001 cycles: 270730388 heartbeat IPC: 0.472218 cumulative IPC: 0.467607 (Simulation time: 37 hr 37 min 43 sec) 
 Total Blocks : 262144 Invalid Blocks : 0
Heartbeat CPU 1 instructions: 260000001 cycles: 270767852 heartbeat IPC: 0.471634 cumulative IPC: 0.46747 (Simulation time: 37 hr 37 min 47 sec) 
 Total Blocks : 262144 Invalid Blocks : 0
Heartbeat CPU 4 instructions: 270000002 cycles: 292614466 heartbeat IPC: 0.440081 cumulative IPC: 0.466056 (Simulation time: 38 hr 51 min 28 sec) 
 Total Blocks : 262144 Invalid Blocks : 0
Heartbeat CPU 7 instructions: 270000002 cycles: 292706216 heartbeat IPC: 0.43982 cumulative IPC: 0.465772 (Simulation time: 38 hr 51 min 39 sec) 
 Total Blocks : 262144 Invalid Blocks : 0
Heartbeat CPU 6 instructions: 270000002 cycles: 293002200 heartbeat IPC: 0.439597 cumulative IPC: 0.464856 (Simulation time: 38 hr 52 min 22 sec) 
 Total Blocks : 262144 Invalid Blocks : 0
Heartbeat CPU 2 instructions: 270000002 cycles: 293046921 heartbeat IPC: 0.439234 cumulative IPC: 0.464718 (Simulation time: 38 hr 52 min 28 sec) 
 Total Blocks : 262144 Invalid Blocks : 0
Heartbeat CPU 3 instructions: 270000002 cycles: 293177339 heartbeat IPC: 0.444137 cumulative IPC: 0.464314 (Simulation time: 38 hr 53 min 0 sec) 
 Total Blocks : 262144 Invalid Blocks : 0
Heartbeat CPU 5 instructions: 270000002 cycles: 293192027 heartbeat IPC: 0.443945 cumulative IPC: 0.464271 (Simulation time: 38 hr 53 min 4 sec) 
 Total Blocks : 262144 Invalid Blocks : 0
Heartbeat CPU 0 instructions: 270000002 cycles: 293383692 heartbeat IPC: 0.441437 cumulative IPC: 0.46368 (Simulation time: 38 hr 53 min 24 sec) 
 Total Blocks : 262144 Invalid Blocks : 0
Heartbeat CPU 1 instructions: 270000002 cycles: 293388951 heartbeat IPC: 0.442065 cumulative IPC: 0.463663 (Simulation time: 38 hr 53 min 26 sec) 
 Total Blocks : 262144 Invalid Blocks : 0
Heartbeat CPU 4 instructions: 280000001 cycles: 315803897 heartbeat IPC: 0.431231 cumulative IPC: 0.461398 (Simulation time: 40 hr 6 min 44 sec) 
 Total Blocks : 262144 Invalid Blocks : 0
Heartbeat CPU 7 instructions: 280000001 cycles: 315920619 heartbeat IPC: 0.430767 cumulative IPC: 0.461088 (Simulation time: 40 hr 7 min 1 sec) 
 Total Blocks : 262144 Invalid Blocks : 0
Heartbeat CPU 6 instructions: 280000001 cycles: 316129176 heartbeat IPC: 0.432395 cumulative IPC: 0.460534 (Simulation time: 40 hr 7 min 48 sec) 
 Total Blocks : 262144 Invalid Blocks : 0
Heartbeat CPU 2 instructions: 280000001 cycles: 316153619 heartbeat IPC: 0.432775 cumulative IPC: 0.460469 (Simulation time: 40 hr 7 min 52 sec) 
 Total Blocks : 262144 Invalid Blocks : 0
Heartbeat CPU 5 instructions: 280000001 cycles: 316202181 heartbeat IPC: 0.434591 cumulative IPC: 0.460341 (Simulation time: 40 hr 7 min 58 sec) 
 Total Blocks : 262144 Invalid Blocks : 0
Heartbeat CPU 3 instructions: 280000001 cycles: 316229575 heartbeat IPC: 0.433797 cumulative IPC: 0.460267 (Simulation time: 40 hr 8 min 1 sec) 
 Total Blocks : 262144 Invalid Blocks : 0
Heartbeat CPU 0 instructions: 280000001 cycles: 316432562 heartbeat IPC: 0.433861 cumulative IPC: 0.45973 (Simulation time: 40 hr 8 min 48 sec) 
 Total Blocks : 262144 Invalid Blocks : 0
Heartbeat CPU 1 instructions: 280000001 cycles: 316466184 heartbeat IPC: 0.433327 cumulative IPC: 0.459641 (Simulation time: 40 hr 8 min 54 sec) 
 Total Blocks : 262144 Invalid Blocks : 0
Heartbeat CPU 4 instructions: 290000000 cycles: 337144071 heartbeat IPC: 0.4686 cumulative IPC: 0.462187 (Simulation time: 41 hr 23 min 0 sec) 
 Total Blocks : 262144 Invalid Blocks : 0
Heartbeat CPU 7 instructions: 290000000 cycles: 337267402 heartbeat IPC: 0.468455 cumulative IPC: 0.461895 (Simulation time: 41 hr 23 min 20 sec) 
 Total Blocks : 262144 Invalid Blocks : 0
Heartbeat CPU 2 instructions: 290000000 cycles: 337304050 heartbeat IPC: 0.472804 cumulative IPC: 0.461808 (Simulation time: 41 hr 23 min 26 sec) 
 Total Blocks : 262144 Invalid Blocks : 0
Heartbeat CPU 5 instructions: 290000000 cycles: 337314095 heartbeat IPC: 0.473666 cumulative IPC: 0.461785 (Simulation time: 41 hr 23 min 28 sec) 
 Total Blocks : 262144 Invalid Blocks : 0
Heartbeat CPU 6 instructions: 290000000 cycles: 337321461 heartbeat IPC: 0.47187 cumulative IPC: 0.461767 (Simulation time: 41 hr 23 min 29 sec) 
 Total Blocks : 262144 Invalid Blocks : 0
Heartbeat CPU 3 instructions: 290000000 cycles: 337527067 heartbeat IPC: 0.469539 cumulative IPC: 0.461279 (Simulation time: 41 hr 24 min 19 sec) 
 Total Blocks : 262144 Invalid Blocks : 0
Heartbeat CPU 0 instructions: 290000000 cycles: 337757309 heartbeat IPC: 0.468939 cumulative IPC: 0.460735 (Simulation time: 41 hr 25 min 1 sec) 
 Total Blocks : 262144 Invalid Blocks : 0
Heartbeat CPU 1 instructions: 290000000 cycles: 337763505 heartbeat IPC: 0.469543 cumulative IPC: 0.460721 (Simulation time: 41 hr 25 min 4 sec) 
 Total Blocks : 262144 Invalid Blocks : 0
Heartbeat CPU 4 instructions: 300000001 cycles: 359021143 heartbeat IPC: 0.4571 cumulative IPC: 0.461674 (Simulation time: 42 hr 38 min 17 sec) 
 Total Blocks : 262144 Invalid Blocks : 0
Heartbeat CPU 2 instructions: 300000001 cycles: 359027350 heartbeat IPC: 0.460335 cumulative IPC: 0.46166 (Simulation time: 42 hr 38 min 19 sec) 
 Total Blocks : 262144 Invalid Blocks : 0
Heartbeat CPU 7 instructions: 300000001 cycles: 359076131 heartbeat IPC: 0.458532 cumulative IPC: 0.461557 (Simulation time: 42 hr 38 min 23 sec) 
 Total Blocks : 262144 Invalid Blocks : 0
Heartbeat CPU 6 instructions: 300000001 cycles: 359207894 heartbeat IPC: 0.456904 cumulative IPC: 0.461276 (Simulation time: 42 hr 38 min 40 sec) 
 Total Blocks : 262144 Invalid Blocks : 0
Heartbeat CPU 5 instructions: 300000001 cycles: 359292257 heartbeat IPC: 0.454997 cumulative IPC: 0.461097 (Simulation time: 42 hr 38 min 50 sec) 
 Total Blocks : 262144 Invalid Blocks : 0
Heartbeat CPU 3 instructions: 300000001 cycles: 359501481 heartbeat IPC: 0.455075 cumulative IPC: 0.460651 (Simulation time: 42 hr 39 min 29 sec) 
 Total Blocks : 262144 Invalid Blocks : 0
Heartbeat CPU 1 instructions: 300000001 cycles: 359614620 heartbeat IPC: 0.457643 cumulative IPC: 0.460411 (Simulation time: 42 hr 39 min 44 sec) 
 Total Blocks : 262144 Invalid Blocks : 0
Heartbeat CPU 0 instructions: 300000001 cycles: 359629752 heartbeat IPC: 0.457196 cumulative IPC: 0.460379 (Simulation time: 42 hr 39 min 47 sec) 
 Total Blocks : 262144 Invalid Blocks : 0
Heartbeat CPU 4 instructions: 310000003 cycles: 381553931 heartbeat IPC: 0.443798 cumulative IPC: 0.459989 (Simulation time: 43 hr 51 min 52 sec) 
 Total Blocks : 262144 Invalid Blocks : 0
Heartbeat CPU 2 instructions: 310000003 cycles: 381605592 heartbeat IPC: 0.442904 cumulative IPC: 0.45989 (Simulation time: 43 hr 51 min 58 sec) 
 Total Blocks : 262144 Invalid Blocks : 0
Heartbeat CPU 7 instructions: 310000003 cycles: 381716900 heartbeat IPC: 0.441681 cumulative IPC: 0.459676 (Simulation time: 43 hr 52 min 11 sec) 
 Total Blocks : 262144 Invalid Blocks : 0
Heartbeat CPU 6 instructions: 310000003 cycles: 381799166 heartbeat IPC: 0.442649 cumulative IPC: 0.459518 (Simulation time: 43 hr 52 min 21 sec) 
 Total Blocks : 262144 Invalid Blocks : 0
Heartbeat CPU 5 instructions: 310000003 cycles: 381822049 heartbeat IPC: 0.443857 cumulative IPC: 0.459474 (Simulation time: 43 hr 52 min 24 sec) 
 Total Blocks : 262144 Invalid Blocks : 0
Heartbeat CPU 3 instructions: 310000003 cycles: 381995249 heartbeat IPC: 0.444568 cumulative IPC: 0.459141 (Simulation time: 43 hr 53 min 3 sec) 
 Total Blocks : 262144 Invalid Blocks : 0
Heartbeat CPU 1 instructions: 310000003 cycles: 381999600 heartbeat IPC: 0.446728 cumulative IPC: 0.459133 (Simulation time: 43 hr 53 min 5 sec) 
 Total Blocks : 262144 Invalid Blocks : 0
Heartbeat CPU 0 instructions: 310000003 cycles: 382174311 heartbeat IPC: 0.443566 cumulative IPC: 0.458798 (Simulation time: 43 hr 53 min 28 sec) 
 Total Blocks : 262144 Invalid Blocks : 0
Heartbeat CPU 4 instructions: 320000000 cycles: 404198410 heartbeat IPC: 0.441609 cumulative IPC: 0.458399 (Simulation time: 45 hr 4 min 6 sec) 
 Total Blocks : 262144 Invalid Blocks : 0
Heartbeat CPU 2 instructions: 320000000 cycles: 404256257 heartbeat IPC: 0.441488 cumulative IPC: 0.458298 (Simulation time: 45 hr 4 min 12 sec) 
 Total Blocks : 262144 Invalid Blocks : 0
Heartbeat CPU 7 instructions: 320000000 cycles: 404397297 heartbeat IPC: 0.440909 cumulative IPC: 0.458052 (Simulation time: 45 hr 4 min 29 sec) 
 Total Blocks : 262144 Invalid Blocks : 0
Heartbeat CPU 6 instructions: 320000000 cycles: 404431206 heartbeat IPC: 0.441851 cumulative IPC: 0.457992 (Simulation time: 45 hr 4 min 33 sec) 
 Total Blocks : 262144 Invalid Blocks : 0
Heartbeat CPU 5 instructions: 320000000 cycles: 404487956 heartbeat IPC: 0.441191 cumulative IPC: 0.457893 (Simulation time: 45 hr 4 min 39 sec) 
 Total Blocks : 262144 Invalid Blocks : 0
Heartbeat CPU 1 instructions: 320000000 cycles: 404577199 heartbeat IPC: 0.442917 cumulative IPC: 0.457736 (Simulation time: 45 hr 4 min 52 sec) 
 Total Blocks : 262144 Invalid Blocks : 0
Heartbeat CPU 3 instructions: 320000000 cycles: 404597526 heartbeat IPC: 0.442433 cumulative IPC: 0.457701 (Simulation time: 45 hr 5 min 6 sec) 
 Total Blocks : 262144 Invalid Blocks : 0
Heartbeat CPU 0 instructions: 320000000 cycles: 404868109 heartbeat IPC: 0.440649 cumulative IPC: 0.457229 (Simulation time: 45 hr 5 min 49 sec) 
 Total Blocks : 262144 Invalid Blocks : 0
Heartbeat CPU 4 instructions: 330000000 cycles: 425686767 heartbeat IPC: 0.465368 cumulative IPC: 0.458928 (Simulation time: 46 hr 10 min 9 sec) 
 Total Blocks : 262144 Invalid Blocks : 0
Heartbeat CPU 2 instructions: 330000000 cycles: 425788614 heartbeat IPC: 0.464417 cumulative IPC: 0.458763 (Simulation time: 46 hr 10 min 20 sec) 
 Total Blocks : 262144 Invalid Blocks : 0
Heartbeat CPU 7 instructions: 330000000 cycles: 425826172 heartbeat IPC: 0.46666 cumulative IPC: 0.458703 (Simulation time: 46 hr 10 min 24 sec) 
 Total Blocks : 262144 Invalid Blocks : 0
Heartbeat CPU 6 instructions: 330000000 cycles: 425851161 heartbeat IPC: 0.466854 cumulative IPC: 0.458662 (Simulation time: 46 hr 10 min 26 sec) 
 Total Blocks : 262144 Invalid Blocks : 0
Heartbeat CPU 5 instructions: 330000000 cycles: 425994142 heartbeat IPC: 0.464982 cumulative IPC: 0.458431 (Simulation time: 46 hr 10 min 42 sec) 
 Total Blocks : 262144 Invalid Blocks : 0
Heartbeat CPU 1 instructions: 330000000 cycles: 426025518 heartbeat IPC: 0.466237 cumulative IPC: 0.458379 (Simulation time: 46 hr 10 min 46 sec) 
 Total Blocks : 262144 Invalid Blocks : 0
Heartbeat CPU 3 instructions: 330000000 cycles: 426077676 heartbeat IPC: 0.465546 cumulative IPC: 0.458295 (Simulation time: 46 hr 10 min 50 sec) 
 Total Blocks : 262144 Invalid Blocks : 0
Heartbeat CPU 0 instructions: 330000000 cycles: 426400975 heartbeat IPC: 0.464406 cumulative IPC: 0.457773 (Simulation time: 46 hr 11 min 41 sec) 
 Total Blocks : 262144 Invalid Blocks : 0
Heartbeat CPU 4 instructions: 340000002 cycles: 447237460 heartbeat IPC: 0.464022 cumulative IPC: 0.459288 (Simulation time: 47 hr 8 min 3 sec) 
 Total Blocks : 262144 Invalid Blocks : 0
Heartbeat CPU 2 instructions: 340000002 cycles: 447247792 heartbeat IPC: 0.466001 cumulative IPC: 0.459272 (Simulation time: 47 hr 8 min 5 sec) 
 Total Blocks : 262144 Invalid Blocks : 0
Heartbeat CPU 7 instructions: 340000002 cycles: 447312441 heartbeat IPC: 0.465414 cumulative IPC: 0.459175 (Simulation time: 47 hr 8 min 13 sec) 
 Total Blocks : 262144 Invalid Blocks : 0
Heartbeat CPU 6 instructions: 340000002 cycles: 447405382 heartbeat IPC: 0.463946 cumulative IPC: 0.459035 (Simulation time: 47 hr 8 min 28 sec) 
 Total Blocks : 262144 Invalid Blocks : 0
Heartbeat CPU 5 instructions: 340000002 cycles: 447570264 heartbeat IPC: 0.463475 cumulative IPC: 0.458787 (Simulation time: 47 hr 9 min 4 sec) 
 Total Blocks : 262144 Invalid Blocks : 0
Heartbeat CPU 1 instructions: 340000002 cycles: 447596206 heartbeat IPC: 0.463592 cumulative IPC: 0.458747 (Simulation time: 47 hr 9 min 7 sec) 
 Total Blocks : 262144 Invalid Blocks : 0
Heartbeat CPU 3 instructions: 340000002 cycles: 447691671 heartbeat IPC: 0.462663 cumulative IPC: 0.458604 (Simulation time: 47 hr 9 min 17 sec) 
 Total Blocks : 262144 Invalid Blocks : 0
Heartbeat CPU 0 instructions: 340000002 cycles: 447991223 heartbeat IPC: 0.463172 cumulative IPC: 0.458155 (Simulation time: 47 hr 9 min 57 sec) 
 Total Blocks : 262144 Invalid Blocks : 0
Heartbeat CPU 2 instructions: 350000001 cycles: 467965379 heartbeat IPC: 0.482682 cumulative IPC: 0.460762 (Simulation time: 48 hr 8 min 32 sec) 
 Total Blocks : 262144 Invalid Blocks : 0
Heartbeat CPU 4 instructions: 350000001 cycles: 468004943 heartbeat IPC: 0.481522 cumulative IPC: 0.460706 (Simulation time: 48 hr 8 min 37 sec) 
 Total Blocks : 262144 Invalid Blocks : 0
Heartbeat CPU 7 instructions: 350000001 cycles: 468243991 heartbeat IPC: 0.477748 cumulative IPC: 0.460369 (Simulation time: 48 hr 9 min 8 sec) 
 Total Blocks : 262144 Invalid Blocks : 0
Heartbeat CPU 6 instructions: 350000001 cycles: 468377581 heartbeat IPC: 0.476822 cumulative IPC: 0.46018 (Simulation time: 48 hr 9 min 26 sec) 
 Total Blocks : 262144 Invalid Blocks : 0
Heartbeat CPU 5 instructions: 350000001 cycles: 468533009 heartbeat IPC: 0.477037 cumulative IPC: 0.45996 (Simulation time: 48 hr 10 min 1 sec) 
 Total Blocks : 262144 Invalid Blocks : 0
Heartbeat CPU 1 instructions: 350000001 cycles: 468608602 heartbeat IPC: 0.47591 cumulative IPC: 0.459853 (Simulation time: 48 hr 10 min 8 sec) 
 Total Blocks : 262144 Invalid Blocks : 0
Heartbeat CPU 3 instructions: 350000001 cycles: 468720696 heartbeat IPC: 0.475533 cumulative IPC: 0.459695 (Simulation time: 48 hr 10 min 22 sec) 
 Total Blocks : 262144 Invalid Blocks : 0
Heartbeat CPU 0 instructions: 350000001 cycles: 469049550 heartbeat IPC: 0.474871 cumulative IPC: 0.459232 (Simulation time: 48 hr 11 min 6 sec) 
 Total Blocks : 262144 Invalid Blocks : 0
Heartbeat CPU 4 instructions: 360000000 cycles: 490638533 heartbeat IPC: 0.441821 cumulative IPC: 0.459479 (Simulation time: 49 hr 10 min 48 sec) 
 Total Blocks : 262144 Invalid Blocks : 0
Heartbeat CPU 2 instructions: 360000000 cycles: 490642153 heartbeat IPC: 0.44098 cumulative IPC: 0.459474 (Simulation time: 49 hr 10 min 50 sec) 
 Total Blocks : 262144 Invalid Blocks : 0
Heartbeat CPU 7 instructions: 360000000 cycles: 491041269 heartbeat IPC: 0.438649 cumulative IPC: 0.458948 (Simulation time: 49 hr 11 min 45 sec) 
 Total Blocks : 262144 Invalid Blocks : 0
Heartbeat CPU 6 instructions: 360000000 cycles: 491158726 heartbeat IPC: 0.438959 cumulative IPC: 0.458793 (Simulation time: 49 hr 12 min 12 sec) 
 Total Blocks : 262144 Invalid Blocks : 0
Heartbeat CPU 5 instructions: 360000000 cycles: 491332791 heartbeat IPC: 0.438601 cumulative IPC: 0.458565 (Simulation time: 49 hr 12 min 42 sec) 
 Total Blocks : 262144 Invalid Blocks : 0
Heartbeat CPU 1 instructions: 360000000 cycles: 491394515 heartbeat IPC: 0.438868 cumulative IPC: 0.458483 (Simulation time: 49 hr 12 min 49 sec) 
 Total Blocks : 262144 Invalid Blocks : 0
Heartbeat CPU 3 instructions: 360000000 cycles: 491509515 heartbeat IPC: 0.438812 cumulative IPC: 0.458332 (Simulation time: 49 hr 13 min 1 sec) 
 Total Blocks : 262144 Invalid Blocks : 0
Heartbeat CPU 0 instructions: 360000000 cycles: 491785227 heartbeat IPC: 0.439837 cumulative IPC: 0.45797 (Simulation time: 49 hr 13 min 54 sec) 
 Total Blocks : 262144 Invalid Blocks : 0
Heartbeat CPU 4 instructions: 370000001 cycles: 512396397 heartbeat IPC: 0.459604 cumulative IPC: 0.459486 (Simulation time: 50 hr 9 min 41 sec) 
 Total Blocks : 262144 Invalid Blocks : 0
Heartbeat CPU 2 instructions: 370000001 cycles: 512455356 heartbeat IPC: 0.458438 cumulative IPC: 0.459413 (Simulation time: 50 hr 9 min 45 sec) 
 Total Blocks : 262144 Invalid Blocks : 0
Heartbeat CPU 7 instructions: 370000001 cycles: 512926317 heartbeat IPC: 0.456933 cumulative IPC: 0.458829 (Simulation time: 50 hr 10 min 54 sec) 
 Total Blocks : 262144 Invalid Blocks : 0
Heartbeat CPU 6 instructions: 370000001 cycles: 512996605 heartbeat IPC: 0.45792 cumulative IPC: 0.458742 (Simulation time: 50 hr 11 min 1 sec) 
 Total Blocks : 262144 Invalid Blocks : 0
Heartbeat CPU 5 instructions: 370000001 cycles: 513172056 heartbeat IPC: 0.457891 cumulative IPC: 0.458525 (Simulation time: 50 hr 11 min 21 sec) 
 Total Blocks : 262144 Invalid Blocks : 0
Heartbeat CPU 1 instructions: 370000001 cycles: 513259211 heartbeat IPC: 0.457358 cumulative IPC: 0.458416 (Simulation time: 50 hr 11 min 28 sec) 
 Total Blocks : 262144 Invalid Blocks : 0
Heartbeat CPU 3 instructions: 370000001 cycles: 513376670 heartbeat IPC: 0.457307 cumulative IPC: 0.458271 (Simulation time: 50 hr 11 min 39 sec) 
 Total Blocks : 262144 Invalid Blocks : 0
Heartbeat CPU 0 instructions: 370000001 cycles: 513676110 heartbeat IPC: 0.456811 cumulative IPC: 0.457902 (Simulation time: 50 hr 12 min 30 sec) 
 Total Blocks : 262144 Invalid Blocks : 0
Heartbeat CPU 4 instructions: 380000001 cycles: 536228705 heartbeat IPC: 0.419598 cumulative IPC: 0.457072 (Simulation time: 51 hr 7 min 32 sec) 
 Total Blocks : 262144 Invalid Blocks : 0
Heartbeat CPU 2 instructions: 380000001 cycles: 536317814 heartbeat IPC: 0.419068 cumulative IPC: 0.456969 (Simulation time: 51 hr 7 min 43 sec) 
 Total Blocks : 262144 Invalid Blocks : 0
Heartbeat CPU 7 instructions: 380000001 cycles: 536745633 heartbeat IPC: 0.419827 cumulative IPC: 0.456473 (Simulation time: 51 hr 8 min 48 sec) 
 Total Blocks : 262144 Invalid Blocks : 0
Heartbeat CPU 6 instructions: 380000001 cycles: 536843179 heartbeat IPC: 0.419347 cumulative IPC: 0.45636 (Simulation time: 51 hr 8 min 59 sec) 
 Total Blocks : 262144 Invalid Blocks : 0
Heartbeat CPU 5 instructions: 380000001 cycles: 537013879 heartbeat IPC: 0.419431 cumulative IPC: 0.456163 (Simulation time: 51 hr 9 min 18 sec) 
 Total Blocks : 262144 Invalid Blocks : 0
Heartbeat CPU 1 instructions: 380000001 cycles: 537078493 heartbeat IPC: 0.419828 cumulative IPC: 0.456087 (Simulation time: 51 hr 9 min 26 sec) 
 Total Blocks : 262144 Invalid Blocks : 0
Heartbeat CPU 3 instructions: 380000001 cycles: 537192606 heartbeat IPC: 0.419887 cumulative IPC: 0.455956 (Simulation time: 51 hr 9 min 39 sec) 
 Total Blocks : 262144 Invalid Blocks : 0
Heartbeat CPU 0 instructions: 380000001 cycles: 537521188 heartbeat IPC: 0.419374 cumulative IPC: 0.455577 (Simulation time: 51 hr 10 min 30 sec) 
 Total Blocks : 262144 Invalid Blocks : 0
Heartbeat CPU 4 instructions: 390000000 cycles: 559272394 heartbeat IPC: 0.433958 cumulative IPC: 0.455795 (Simulation time: 52 hr 4 min 24 sec) 
 Total Blocks : 262144 Invalid Blocks : 0
Heartbeat CPU 2 instructions: 390000000 cycles: 559319747 heartbeat IPC: 0.434746 cumulative IPC: 0.455743 (Simulation time: 52 hr 4 min 27 sec) 
 Total Blocks : 262144 Invalid Blocks : 0
Heartbeat CPU 7 instructions: 390000000 cycles: 559678737 heartbeat IPC: 0.436051 cumulative IPC: 0.455351 (Simulation time: 52 hr 5 min 11 sec) 
 Total Blocks : 262144 Invalid Blocks : 0
Heartbeat CPU 6 instructions: 390000000 cycles: 559881169 heartbeat IPC: 0.434066 cumulative IPC: 0.45513 (Simulation time: 52 hr 5 min 46 sec) 
 Total Blocks : 262144 Invalid Blocks : 0
Heartbeat CPU 5 instructions: 390000000 cycles: 560038654 heartbeat IPC: 0.434315 cumulative IPC: 0.454958 (Simulation time: 52 hr 6 min 4 sec) 
 Total Blocks : 262144 Invalid Blocks : 0
Heartbeat CPU 1 instructions: 390000000 cycles: 560117869 heartbeat IPC: 0.43404 cumulative IPC: 0.454871 (Simulation time: 52 hr 6 min 11 sec) 
 Total Blocks : 262144 Invalid Blocks : 0
Heartbeat CPU 3 instructions: 390000000 cycles: 560242002 heartbeat IPC: 0.433851 cumulative IPC: 0.454736 (Simulation time: 52 hr 6 min 22 sec) 
 Total Blocks : 262144 Invalid Blocks : 0
Heartbeat CPU 0 instructions: 390000000 cycles: 560596016 heartbeat IPC: 0.433373 cumulative IPC: 0.454351 (Simulation time: 52 hr 7 min 1 sec) 
 Total Blocks : 262144 Invalid Blocks : 0
Heartbeat CPU 4 instructions: 400000002 cycles: 580232275 heartbeat IPC: 0.477102 cumulative IPC: 0.456815 (Simulation time: 52 hr 59 min 40 sec) 
 Total Blocks : 262144 Invalid Blocks : 0
Finished CPU 4 instructions: 200000000 cycles: 437814323 cumulative IPC: 0.456815 (Simulation time: 52 hr 59 min 41 sec) 
Heartbeat CPU 2 instructions: 400000002 cycles: 580307017 heartbeat IPC: 0.476479 cumulative IPC: 0.456737 (Simulation time: 52 hr 59 min 49 sec) 
 Total Blocks : 262144 Invalid Blocks : 0
Finished CPU 2 instructions: 200000001 cycles: 437889149 cumulative IPC: 0.456737 (Simulation time: 52 hr 59 min 50 sec) 
Heartbeat CPU 7 instructions: 400000002 cycles: 580677908 heartbeat IPC: 0.476209 cumulative IPC: 0.45635 (Simulation time: 53 hr 0 min 37 sec) 
 Total Blocks : 262144 Invalid Blocks : 0
Finished CPU 7 instructions: 200000000 cycles: 438259805 cumulative IPC: 0.45635 (Simulation time: 53 hr 0 min 37 sec) 
Heartbeat CPU 6 instructions: 400000002 cycles: 580893082 heartbeat IPC: 0.475921 cumulative IPC: 0.456126 (Simulation time: 53 hr 1 min 7 sec) 
 Total Blocks : 262144 Invalid Blocks : 0
Finished CPU 6 instructions: 200000000 cycles: 438475134 cumulative IPC: 0.456126 (Simulation time: 53 hr 1 min 18 sec) 
Heartbeat CPU 5 instructions: 400000002 cycles: 581060436 heartbeat IPC: 0.475697 cumulative IPC: 0.455952 (Simulation time: 53 hr 1 min 37 sec) 
 Total Blocks : 262144 Invalid Blocks : 0
Finished CPU 5 instructions: 200000002 cycles: 438642409 cumulative IPC: 0.455952 (Simulation time: 53 hr 1 min 38 sec) 
Heartbeat CPU 1 instructions: 400000002 cycles: 581139633 heartbeat IPC: 0.475698 cumulative IPC: 0.455869 (Simulation time: 53 hr 1 min 46 sec) 
 Total Blocks : 262144 Invalid Blocks : 0
Finished CPU 1 instructions: 200000002 cycles: 438722059 cumulative IPC: 0.455869 (Simulation time: 53 hr 1 min 46 sec) 
Heartbeat CPU 3 instructions: 400000002 cycles: 581268494 heartbeat IPC: 0.475591 cumulative IPC: 0.455735 (Simulation time: 53 hr 1 min 59 sec) 
 Total Blocks : 262144 Invalid Blocks : 0
Finished CPU 3 instructions: 200000002 cycles: 438851143 cumulative IPC: 0.455735 (Simulation time: 53 hr 2 min 0 sec) 
Heartbeat CPU 0 instructions: 400000002 cycles: 581599054 heartbeat IPC: 0.476122 cumulative IPC: 0.455392 (Simulation time: 53 hr 2 min 42 sec) 
 Total Blocks : 262144 Invalid Blocks : 0
Finished CPU 0 instructions: 200000002 cycles: 439181624 cumulative IPC: 0.455392 (Simulation time: 53 hr 2 min 53 sec) 

CPU 0 Branch Prediction Accuracy: 94.8773% MPKI: 13.2717 Average ROB Occupancy at Mispredict: 72.5692

CPU 1 Branch Prediction Accuracy: 94.8773% MPKI: 13.2719 Average ROB Occupancy at Mispredict: 72.5705

CPU 2 Branch Prediction Accuracy: 94.8771% MPKI: 13.2721 Average ROB Occupancy at Mispredict: 72.5682

CPU 3 Branch Prediction Accuracy: 94.8773% MPKI: 13.2718 Average ROB Occupancy at Mispredict: 72.5692

CPU 4 Branch Prediction Accuracy: 94.8771% MPKI: 13.2722 Average ROB Occupancy at Mispredict: 72.5669

CPU 5 Branch Prediction Accuracy: 94.8772% MPKI: 13.2719 Average ROB Occupancy at Mispredict: 72.567

CPU 6 Branch Prediction Accuracy: 94.8772% MPKI: 13.272 Average ROB Occupancy at Mispredict: 72.5703

CPU 7 Branch Prediction Accuracy: 94.8772% MPKI: 13.2721 Average ROB Occupancy at Mispredict: 72.5695

ChampSim completed all CPUs

Total Simulation Statistics (not including warmup)

CPU 0 cumulative IPC: 0.455392 instructions: 200000002 cycles: 439181624
ITLB TOTAL     ACCESS: 25672203  HIT: 25672203  MISS:     0  HIT %:   100  MISS %:     0  AVERAGE MISS PENALTY: 0
ITLB LOAD      ACCESS: 25672203  HIT: 25672203  MISS:     0  HIT %:   100  MISS %:     0  AVERAGE MISS PENALTY: 0
ITLB RFO       ACCESS:     0  HIT:     0  MISS:     0  HIT %:     0  MISS %:     0  AVERAGE MISS PENALTY: 0
ITLB PREFETCH  ACCESS:     0  HIT:     0  MISS:     0  HIT %:     0  MISS %:     0  AVERAGE MISS PENALTY: 0
ITLB WRITEBACK ACCESS:     0  HIT:     0  MISS:     0  HIT %:     0  MISS %:     0  AVERAGE MISS PENALTY: 0

DTLB TOTAL     ACCESS: 51049593  HIT: 50961581  MISS: 88012  HIT %: 99.8276  MISS %: 0.172405  AVERAGE MISS PENALTY: 9.26116
DTLB LOAD      ACCESS: 47509510  HIT: 47421498  MISS: 88012  HIT %: 99.8147  MISS %: 0.185251  AVERAGE MISS PENALTY: 9.26116
DTLB RFO       ACCESS: 3540083  HIT: 3540083  MISS:     0  HIT %:   100  MISS %:     0  AVERAGE MISS PENALTY: 0
DTLB PREFETCH  ACCESS:     0  HIT:     0  MISS:     0  HIT %:     0  MISS %:     0  AVERAGE MISS PENALTY: 0
DTLB WRITEBACK ACCESS:     0  HIT:     0  MISS:     0  HIT %:     0  MISS %:     0  AVERAGE MISS PENALTY: 0

STLB TOTAL     ACCESS: 88012  HIT: 87827  MISS:   185  HIT %: 99.7898  MISS %: 0.210199  AVERAGE MISS PENALTY: 100
STLB LOAD      ACCESS: 88012  HIT: 87827  MISS:   185  HIT %: 99.7898  MISS %: 0.210199  AVERAGE MISS PENALTY: 100
STLB RFO       ACCESS:     0  HIT:     0  MISS:     0  HIT %:     0  MISS %:     0  AVERAGE MISS PENALTY: 0
STLB PREFETCH  ACCESS:     0  HIT:     0  MISS:     0  HIT %:     0  MISS %:     0  AVERAGE MISS PENALTY: 0
STLB WRITEBACK ACCESS:     0  HIT:     0  MISS:     0  HIT %:     0  MISS %:     0  AVERAGE MISS PENALTY: 0

L1D TOTAL     ACCESS: 56487384  HIT: 51052112  MISS: 5435272  HIT %: 90.3779  MISS %: 9.6221  AVERAGE MISS PENALTY: 8.39646e+07
L1D LOAD      ACCESS: 33556393  HIT: 32080876  MISS: 1475517  HIT %: 95.6029  MISS %: 4.39713  AVERAGE MISS PENALTY: 3.09295e+08
L1D RFO       ACCESS: 3540227  HIT: 3540227  MISS:     0  HIT %:   100  MISS %:     0  AVERAGE MISS PENALTY: 0
L1D PREFETCH  ACCESS: 19390764  HIT: 15431009  MISS: 3959755  HIT %: 79.5792  MISS %: 20.4208  AVERAGE MISS PENALTY: 144.908
L1D WRITEBACK ACCESS:     0  HIT:     0  MISS:     0  HIT %:     0  MISS %:     0  AVERAGE MISS PENALTY: 0

L1I TOTAL     ACCESS: 32886786  HIT: 32886786  MISS:     0  HIT %:   100  MISS %:     0  AVERAGE MISS PENALTY: 0
L1I LOAD      ACCESS: 32886786  HIT: 32886786  MISS:     0  HIT %:   100  MISS %:     0  AVERAGE MISS PENALTY: 0
L1I RFO       ACCESS:     0  HIT:     0  MISS:     0  HIT %:     0  MISS %:     0  AVERAGE MISS PENALTY: 0
L1I PREFETCH  ACCESS:     0  HIT:     0  MISS:     0  HIT %:     0  MISS %:     0  AVERAGE MISS PENALTY: 0
L1I WRITEBACK ACCESS:     0  HIT:     0  MISS:     0  HIT %:     0  MISS %:     0  AVERAGE MISS PENALTY: 0

L2C TOTAL     ACCESS: 7253984  HIT: 1835246  MISS: 5418738  HIT %: 25.2998  MISS %: 74.7002  AVERAGE MISS PENALTY: 2.99849e+07
L2C LOAD      ACCESS: 1327721  HIT: 534117  MISS: 793604  HIT %: 40.2281  MISS %: 59.7719  AVERAGE MISS PENALTY: 2.04736e+08
L2C RFO       ACCESS:     0  HIT:     0  MISS:     0  HIT %:     0  MISS %:     0  AVERAGE MISS PENALTY: 0
L2C PREFETCH  ACCESS: 5926120  HIT: 1300986  MISS: 4625134  HIT %: 21.9534  MISS %: 78.0466  AVERAGE MISS PENALTY: 159.056
L2C WRITEBACK ACCESS:   143  HIT:   143  MISS:     0  HIT %:   100  MISS %:     0  AVERAGE MISS PENALTY: 0


LLC0 TOTAL     ACCESS: 677713  HIT: 253010  MISS: 424703  HIT %: 37.3329  MISS %: 62.6671  AVERAGE MISS PENALTY: 216.292
LLC0 LOAD      ACCESS: 124172  HIT: 39360  MISS: 84812  HIT %: 31.698  MISS %: 68.302  AVERAGE MISS PENALTY: 222.954
LLC0 RFO       ACCESS:     0  HIT:     0  MISS:     0  HIT %:     0  MISS %:     0  AVERAGE MISS PENALTY: 0
LLC0 PREFETCH  ACCESS: 553541  HIT: 213650  MISS: 339891  HIT %: 38.597  MISS %: 61.403  AVERAGE MISS PENALTY: 214.63
LLC0 WRITEBACK ACCESS:     0  HIT:     0  MISS:     0  HIT %:     0  MISS %:     0  AVERAGE MISS PENALTY: 0

LLC1 TOTAL     ACCESS: 677593  HIT: 251960  MISS: 425633  HIT %: 37.1846  MISS %: 62.8154  AVERAGE MISS PENALTY: 213.925
LLC1 LOAD      ACCESS: 45903  HIT: 17440  MISS: 28463  HIT %: 37.9932  MISS %: 62.0068  AVERAGE MISS PENALTY: 212.978
LLC1 RFO       ACCESS:     0  HIT:     0  MISS:     0  HIT %:     0  MISS %:     0  AVERAGE MISS PENALTY: 0
LLC1 PREFETCH  ACCESS: 631690  HIT: 234520  MISS: 397170  HIT %: 37.1258  MISS %: 62.8742  AVERAGE MISS PENALTY: 213.993
LLC1 WRITEBACK ACCESS:     0  HIT:     0  MISS:     0  HIT %:     0  MISS %:     0  AVERAGE MISS PENALTY: 0

LLC2 TOTAL     ACCESS: 677012  HIT: 252793  MISS: 424219  HIT %: 37.3395  MISS %: 62.6605  AVERAGE MISS PENALTY: 223.481
LLC2 LOAD      ACCESS: 47393  HIT: 13702  MISS: 33691  HIT %: 28.9114  MISS %: 71.0886  AVERAGE MISS PENALTY: 213.953
LLC2 RFO       ACCESS:     0  HIT:     0  MISS:     0  HIT %:     0  MISS %:     0  AVERAGE MISS PENALTY: 0
LLC2 PREFETCH  ACCESS: 629619  HIT: 239091  MISS: 390528  HIT %: 37.9739  MISS %: 62.0261  AVERAGE MISS PENALTY: 224.302
LLC2 WRITEBACK ACCESS:     0  HIT:     0  MISS:     0  HIT %:     0  MISS %:     0  AVERAGE MISS PENALTY: 0

LLC3 TOTAL     ACCESS: 676839  HIT: 252247  MISS: 424592  HIT %: 37.2684  MISS %: 62.7316  AVERAGE MISS PENALTY: 224.654
LLC3 LOAD      ACCESS: 32736  HIT: 13370  MISS: 19366  HIT %: 40.8419  MISS %: 59.1581  AVERAGE MISS PENALTY: 234.444
LLC3 RFO       ACCESS:     0  HIT:     0  MISS:     0  HIT %:     0  MISS %:     0  AVERAGE MISS PENALTY: 0
LLC3 PREFETCH  ACCESS: 644103  HIT: 238877  MISS: 405226  HIT %: 37.0868  MISS %: 62.9132  AVERAGE MISS PENALTY: 224.186
LLC3 WRITEBACK ACCESS:     0  HIT:     0  MISS:     0  HIT %:     0  MISS %:     0  AVERAGE MISS PENALTY: 0

LLC4 TOTAL     ACCESS: 677032  HIT: 252267  MISS: 424765  HIT %: 37.2607  MISS %: 62.7393  AVERAGE MISS PENALTY: 215.923
LLC4 LOAD      ACCESS: 60482  HIT: 16102  MISS: 44380  HIT %: 26.6228  MISS %: 73.3772  AVERAGE MISS PENALTY: 236.049
LLC4 RFO       ACCESS:     0  HIT:     0  MISS:     0  HIT %:     0  MISS %:     0  AVERAGE MISS PENALTY: 0
LLC4 PREFETCH  ACCESS: 616550  HIT: 236165  MISS: 380385  HIT %: 38.3043  MISS %: 61.6957  AVERAGE MISS PENALTY: 213.574
LLC4 WRITEBACK ACCESS:     0  HIT:     0  MISS:     0  HIT %:     0  MISS %:     0  AVERAGE MISS PENALTY: 0

LLC5 TOTAL     ACCESS: 677386  HIT: 252202  MISS: 425184  HIT %: 37.2317  MISS %: 62.7683  AVERAGE MISS PENALTY: 212.841
LLC5 LOAD      ACCESS: 10723  HIT:  5294  MISS:  5429  HIT %: 49.3705  MISS %: 50.6295  AVERAGE MISS PENALTY: 229.348
LLC5 RFO       ACCESS:     0  HIT:     0  MISS:     0  HIT %:     0  MISS %:     0  AVERAGE MISS PENALTY: 0
LLC5 PREFETCH  ACCESS: 666663  HIT: 246908  MISS: 419755  HIT %: 37.0364  MISS %: 62.9636  AVERAGE MISS PENALTY: 212.628
LLC5 WRITEBACK ACCESS:     0  HIT:     0  MISS:     0  HIT %:     0  MISS %:     0  AVERAGE MISS PENALTY: 0

LLC6 TOTAL     ACCESS: 677365  HIT: 252910  MISS: 424455  HIT %: 37.3373  MISS %: 62.6627  AVERAGE MISS PENALTY: 223.049
LLC6 LOAD      ACCESS: 40756  HIT: 11131  MISS: 29625  HIT %: 27.3113  MISS %: 72.6887  AVERAGE MISS PENALTY: 200.962
LLC6 RFO       ACCESS:     0  HIT:     0  MISS:     0  HIT %:     0  MISS %:     0  AVERAGE MISS PENALTY: 0
LLC6 PREFETCH  ACCESS: 636609  HIT: 241779  MISS: 394830  HIT %: 37.9792  MISS %: 62.0208  AVERAGE MISS PENALTY: 224.706
LLC6 WRITEBACK ACCESS:     0  HIT:     0  MISS:     0  HIT %:     0  MISS %:     0  AVERAGE MISS PENALTY: 0

LLC7 TOTAL     ACCESS: 677798  HIT: 253821  MISS: 423977  HIT %: 37.4479  MISS %: 62.5521  AVERAGE MISS PENALTY: 226.505
LLC7 LOAD      ACCESS:  5024  HIT:  2648  MISS:  2376  HIT %: 52.707  MISS %: 47.293  AVERAGE MISS PENALTY: 204.464
LLC7 RFO       ACCESS:     0  HIT:     0  MISS:     0  HIT %:     0  MISS %:     0  AVERAGE MISS PENALTY: 0
LLC7 PREFETCH  ACCESS: 672774  HIT: 251173  MISS: 421601  HIT %: 37.3339  MISS %: 62.6661  AVERAGE MISS PENALTY: 226.629
LLC7 WRITEBACK ACCESS:     0  HIT:     0  MISS:     0  HIT %:     0  MISS %:     0  AVERAGE MISS PENALTY: 0

Total Rob stall cycles : 	364809260
Total Load Rob Stall cycles : 	210736660
Average Rob Stall cycles : 	 5
Average Load Rob Stall cycles : 	 16

CPU 1 cumulative IPC: 0.455816 instructions: 200186078 cycles: 439181624
ITLB TOTAL     ACCESS: 25695800  HIT: 25695800  MISS:     0  HIT %:   100  MISS %:     0  AVERAGE MISS PENALTY: 0
ITLB LOAD      ACCESS: 25695800  HIT: 25695800  MISS:     0  HIT %:   100  MISS %:     0  AVERAGE MISS PENALTY: 0
ITLB RFO       ACCESS:     0  HIT:     0  MISS:     0  HIT %:     0  MISS %:     0  AVERAGE MISS PENALTY: 0
ITLB PREFETCH  ACCESS:     0  HIT:     0  MISS:     0  HIT %:     0  MISS %:     0  AVERAGE MISS PENALTY: 0
ITLB WRITEBACK ACCESS:     0  HIT:     0  MISS:     0  HIT %:     0  MISS %:     0  AVERAGE MISS PENALTY: 0

DTLB TOTAL     ACCESS: 51097415  HIT: 51009314  MISS: 88101  HIT %: 99.8276  MISS %: 0.172418  AVERAGE MISS PENALTY: 9.26218
DTLB LOAD      ACCESS: 47553992  HIT: 47465891  MISS: 88101  HIT %: 99.8147  MISS %: 0.185265  AVERAGE MISS PENALTY: 9.26218
DTLB RFO       ACCESS: 3543423  HIT: 3543423  MISS:     0  HIT %:   100  MISS %:     0  AVERAGE MISS PENALTY: 0
DTLB PREFETCH  ACCESS:     0  HIT:     0  MISS:     0  HIT %:     0  MISS %:     0  AVERAGE MISS PENALTY: 0
DTLB WRITEBACK ACCESS:     0  HIT:     0  MISS:     0  HIT %:     0  MISS %:     0  AVERAGE MISS PENALTY: 0

STLB TOTAL     ACCESS: 88101  HIT: 87914  MISS:   187  HIT %: 99.7877  MISS %: 0.212256  AVERAGE MISS PENALTY: 100
STLB LOAD      ACCESS: 88101  HIT: 87914  MISS:   187  HIT %: 99.7877  MISS %: 0.212256  AVERAGE MISS PENALTY: 100
STLB RFO       ACCESS:     0  HIT:     0  MISS:     0  HIT %:     0  MISS %:     0  AVERAGE MISS PENALTY: 0
STLB PREFETCH  ACCESS:     0  HIT:     0  MISS:     0  HIT %:     0  MISS %:     0  AVERAGE MISS PENALTY: 0
STLB WRITEBACK ACCESS:     0  HIT:     0  MISS:     0  HIT %:     0  MISS %:     0  AVERAGE MISS PENALTY: 0

L1D TOTAL     ACCESS: 56534932  HIT: 51094449  MISS: 5440483  HIT %: 90.3768  MISS %: 9.62322  AVERAGE MISS PENALTY: 8.39922e+07
L1D LOAD      ACCESS: 33588636  HIT: 32111204  MISS: 1477432  HIT %: 95.6014  MISS %: 4.39861  AVERAGE MISS PENALTY: 3.09292e+08
L1D RFO       ACCESS: 3543568  HIT: 3543568  MISS:     0  HIT %:   100  MISS %:     0  AVERAGE MISS PENALTY: 0
L1D PREFETCH  ACCESS: 19402728  HIT: 15439677  MISS: 3963051  HIT %: 79.5748  MISS %: 20.4252  AVERAGE MISS PENALTY: 144.882
L1D WRITEBACK ACCESS:     0  HIT:     0  MISS:     0  HIT %:     0  MISS %:     0  AVERAGE MISS PENALTY: 0

L1I TOTAL     ACCESS: 32917266  HIT: 32917266  MISS:     0  HIT %:   100  MISS %:     0  AVERAGE MISS PENALTY: 0
L1I LOAD      ACCESS: 32917266  HIT: 32917266  MISS:     0  HIT %:   100  MISS %:     0  AVERAGE MISS PENALTY: 0
L1I RFO       ACCESS:     0  HIT:     0  MISS:     0  HIT %:     0  MISS %:     0  AVERAGE MISS PENALTY: 0
L1I PREFETCH  ACCESS:     0  HIT:     0  MISS:     0  HIT %:     0  MISS %:     0  AVERAGE MISS PENALTY: 0
L1I WRITEBACK ACCESS:     0  HIT:     0  MISS:     0  HIT %:     0  MISS %:     0  AVERAGE MISS PENALTY: 0

L2C TOTAL     ACCESS: 7258059  HIT: 1827052  MISS: 5431007  HIT %: 25.1727  MISS %: 74.8273  AVERAGE MISS PENALTY: 2.98876e+07
L2C LOAD      ACCESS: 1328665  HIT: 534831  MISS: 793834  HIT %: 40.2533  MISS %: 59.7467  AVERAGE MISS PENALTY: 2.04475e+08
L2C RFO       ACCESS:     0  HIT:     0  MISS:     0  HIT %:     0  MISS %:     0  AVERAGE MISS PENALTY: 0
L2C PREFETCH  ACCESS: 5929250  HIT: 1292077  MISS: 4637173  HIT %: 21.7916  MISS %: 78.2084  AVERAGE MISS PENALTY: 158.927
L2C WRITEBACK ACCESS:   144  HIT:   144  MISS:     0  HIT %:   100  MISS %:     0  AVERAGE MISS PENALTY: 0


LLC0 TOTAL     ACCESS: 679303  HIT: 253981  MISS: 425322  HIT %: 37.3885  MISS %: 62.6115  AVERAGE MISS PENALTY: 216.048
LLC0 LOAD      ACCESS: 124492  HIT: 39396  MISS: 85096  HIT %: 31.6454  MISS %: 68.3546  AVERAGE MISS PENALTY: 223.294
LLC0 RFO       ACCESS:     0  HIT:     0  MISS:     0  HIT %:     0  MISS %:     0  AVERAGE MISS PENALTY: 0
LLC0 PREFETCH  ACCESS: 554811  HIT: 214585  MISS: 340226  HIT %: 38.6771  MISS %: 61.3229  AVERAGE MISS PENALTY: 214.236
LLC0 WRITEBACK ACCESS:     0  HIT:     0  MISS:     0  HIT %:     0  MISS %:     0  AVERAGE MISS PENALTY: 0

LLC1 TOTAL     ACCESS: 679047  HIT: 253523  MISS: 425524  HIT %: 37.3351  MISS %: 62.6649  AVERAGE MISS PENALTY: 213.747
LLC1 LOAD      ACCESS: 45902  HIT: 17285  MISS: 28617  HIT %: 37.6563  MISS %: 62.3437  AVERAGE MISS PENALTY: 211.865
LLC1 RFO       ACCESS:     0  HIT:     0  MISS:     0  HIT %:     0  MISS %:     0  AVERAGE MISS PENALTY: 0
LLC1 PREFETCH  ACCESS: 633145  HIT: 236238  MISS: 396907  HIT %: 37.3118  MISS %: 62.6882  AVERAGE MISS PENALTY: 213.883
LLC1 WRITEBACK ACCESS:     0  HIT:     0  MISS:     0  HIT %:     0  MISS %:     0  AVERAGE MISS PENALTY: 0

LLC2 TOTAL     ACCESS: 678616  HIT: 252371  MISS: 426245  HIT %: 37.1891  MISS %: 62.8109  AVERAGE MISS PENALTY: 222.826
LLC2 LOAD      ACCESS: 47425  HIT: 13889  MISS: 33536  HIT %: 29.2862  MISS %: 70.7138  AVERAGE MISS PENALTY: 213.012
LLC2 RFO       ACCESS:     0  HIT:     0  MISS:     0  HIT %:     0  MISS %:     0  AVERAGE MISS PENALTY: 0
LLC2 PREFETCH  ACCESS: 631191  HIT: 238482  MISS: 392709  HIT %: 37.7829  MISS %: 62.2171  AVERAGE MISS PENALTY: 223.664
LLC2 WRITEBACK ACCESS:     0  HIT:     0  MISS:     0  HIT %:     0  MISS %:     0  AVERAGE MISS PENALTY: 0

LLC3 TOTAL     ACCESS: 678290  HIT: 251932  MISS: 426358  HIT %: 37.1422  MISS %: 62.8578  AVERAGE MISS PENALTY: 224.271
LLC3 LOAD      ACCESS: 32739  HIT: 13372  MISS: 19367  HIT %: 40.8443  MISS %: 59.1557  AVERAGE MISS PENALTY: 233.971
LLC3 RFO       ACCESS:     0  HIT:     0  MISS:     0  HIT %:     0  MISS %:     0  AVERAGE MISS PENALTY: 0
LLC3 PREFETCH  ACCESS: 645551  HIT: 238560  MISS: 406991  HIT %: 36.9545  MISS %: 63.0455  AVERAGE MISS PENALTY: 223.809
LLC3 WRITEBACK ACCESS:     0  HIT:     0  MISS:     0  HIT %:     0  MISS %:     0  AVERAGE MISS PENALTY: 0

LLC4 TOTAL     ACCESS: 678466  HIT: 252348  MISS: 426118  HIT %: 37.1939  MISS %: 62.8061  AVERAGE MISS PENALTY: 215.512
[...]
LLC1 PREFETCH  REQUESTED:     0  ISSUED:     0  USEFUL:  6346  USELESS: 3164898
 USEFUL LOAD PREFETCHES:       6346 PREFETCH ISSUED TO LOWER LEVEL:    3170717  ACCURACY: 0.200144
 TIMELY PREFETCHES:       6346 LATE PREFETCHES: 0 DROPPED PREFETCHES: 0
LLC1 AVERAGE MISS LATENCY: 213.976 cycles
LLC2 TOTAL     ACCESS: 677083  HIT: 253648  MISS: 423435  HIT %: 37.4619  MISS %: 62.5381  AVERAGE MISS PENALTY: 223.103
LLC2 LOAD      ACCESS: 47705  HIT: 13749  MISS: 33956  HIT %: 28.8209  MISS %: 71.1791  AVERAGE MISS PENALTY: 213.743
LLC2 RFO       ACCESS:     0  HIT:     0  MISS:     0  HIT %:     0  MISS %:     0  AVERAGE MISS PENALTY: 0
LLC2 PREFETCH  ACCESS: 629378  HIT: 239899  MISS: 389479  HIT %: 38.1168  MISS %: 61.8832  AVERAGE MISS PENALTY: 223.919
LLC2 WRITEBACK ACCESS:     0  HIT:     0  MISS:     0  HIT %:     0  MISS %:     0  AVERAGE MISS PENALTY: 0
LLC2 PREFETCH  REQUESTED:     0  ISSUED:     0  USEFUL: 38028  USELESS: 3092494
 USEFUL LOAD PREFETCHES:      38028 PREFETCH ISSUED TO LOWER LEVEL:    3128229  ACCURACY: 1.21564
 TIMELY PREFETCHES:      38028 LATE PREFETCHES: 0 DROPPED PREFETCHES: 0
LLC2 AVERAGE MISS LATENCY: 223.103 cycles
LLC3 TOTAL     ACCESS: 676889  HIT: 253302  MISS: 423587  HIT %: 37.4215  MISS %: 62.5785  AVERAGE MISS PENALTY: 224.001
LLC3 LOAD      ACCESS: 32530  HIT: 13454  MISS: 19076  HIT %: 41.3587  MISS %: 58.6413  AVERAGE MISS PENALTY: 234.307
LLC3 RFO       ACCESS:     0  HIT:     0  MISS:     0  HIT %:     0  MISS %:     0  AVERAGE MISS PENALTY: 0
LLC3 PREFETCH  ACCESS: 644359  HIT: 239848  MISS: 404511  HIT %: 37.2227  MISS %: 62.7773  AVERAGE MISS PENALTY: 223.515
LLC3 WRITEBACK ACCESS:     0  HIT:     0  MISS:     0  HIT %:     0  MISS %:     0  AVERAGE MISS PENALTY: 0
LLC3 PREFETCH  REQUESTED:     0  ISSUED:     0  USEFUL: 11656  USELESS: 3234004
 USEFUL LOAD PREFETCHES:      11656 PREFETCH ISSUED TO LOWER LEVEL:    3245134  ACCURACY: 0.359184
 TIMELY PREFETCHES:      11656 LATE PREFETCHES: 0 DROPPED PREFETCHES: 0
LLC3 AVERAGE MISS LATENCY: 224.001 cycles
LLC4 TOTAL     ACCESS: 677174  HIT: 253431  MISS: 423743  HIT %: 37.4248  MISS %: 62.5752  AVERAGE MISS PENALTY: 215.683
LLC4 LOAD      ACCESS: 60484  HIT: 16273  MISS: 44211  HIT %: 26.9046  MISS %: 73.0954  AVERAGE MISS PENALTY: 234.328
LLC4 RFO       ACCESS:     0  HIT:     0  MISS:     0  HIT %:     0  MISS %:     0  AVERAGE MISS PENALTY: 0
LLC4 PREFETCH  ACCESS: 616690  HIT: 237158  MISS: 379532  HIT %: 38.4566  MISS %: 61.5434  AVERAGE MISS PENALTY: 213.511
LLC4 WRITEBACK ACCESS:     0  HIT:     0  MISS:     0  HIT %:     0  MISS %:     0  AVERAGE MISS PENALTY: 0
LLC4 PREFETCH  REQUESTED:     0  ISSUED:     0  USEFUL: 38159  USELESS: 3012853
 USEFUL LOAD PREFETCHES:      38159 PREFETCH ISSUED TO LOWER LEVEL:    3046779  ACCURACY: 1.25244
 TIMELY PREFETCHES:      38159 LATE PREFETCHES: 0 DROPPED PREFETCHES: 0
LLC4 AVERAGE MISS LATENCY: 215.683 cycles
LLC5 TOTAL     ACCESS: 677525  HIT: 254128  MISS: 423397  HIT %: 37.5083  MISS %: 62.4917  AVERAGE MISS PENALTY: 212.633
LLC5 LOAD      ACCESS: 10518  HIT:  5165  MISS:  5353  HIT %: 49.1063  MISS %: 50.8937  AVERAGE MISS PENALTY: 231.385
LLC5 RFO       ACCESS:     0  HIT:     0  MISS:     0  HIT %:     0  MISS %:     0  AVERAGE MISS PENALTY: 0
LLC5 PREFETCH  ACCESS: 667007  HIT: 248963  MISS: 418044  HIT %: 37.3254  MISS %: 62.6746  AVERAGE MISS PENALTY: 212.393
LLC5 WRITEBACK ACCESS:     0  HIT:     0  MISS:     0  HIT %:     0  MISS %:     0  AVERAGE MISS PENALTY: 0
LLC5 PREFETCH  REQUESTED:     0  ISSUED:     0  USEFUL:  8119  USELESS: 3348761
 USEFUL LOAD PREFETCHES:       8119 PREFETCH ISSUED TO LOWER LEVEL:    3356509  ACCURACY: 0.241888
 TIMELY PREFETCHES:       8119 LATE PREFETCHES: 0 DROPPED PREFETCHES: 0
LLC5 AVERAGE MISS LATENCY: 212.634 cycles
LLC6 TOTAL     ACCESS: 677643  HIT: 254285  MISS: 423358  HIT %: 37.5249  MISS %: 62.4751  AVERAGE MISS PENALTY: 222.433
LLC6 LOAD      ACCESS: 41097  HIT: 11162  MISS: 29935  HIT %: 27.1601  MISS %: 72.8399  AVERAGE MISS PENALTY: 199.436
LLC6 RFO       ACCESS:     0  HIT:     0  MISS:     0  HIT %:     0  MISS %:     0  AVERAGE MISS PENALTY: 0
LLC6 PREFETCH  ACCESS: 636546  HIT: 243123  MISS: 393423  HIT %: 38.1941  MISS %: 61.8059  AVERAGE MISS PENALTY: 224.183
LLC6 WRITEBACK ACCESS:     0  HIT:     0  MISS:     0  HIT %:     0  MISS %:     0  AVERAGE MISS PENALTY: 0
LLC6 PREFETCH  REQUESTED:     0  ISSUED:     0  USEFUL: 41465  USELESS: 3119963
 USEFUL LOAD PREFETCHES:      41465 PREFETCH ISSUED TO LOWER LEVEL:    3158129  ACCURACY: 1.31296
 TIMELY PREFETCHES:      41465 LATE PREFETCHES: 0 DROPPED PREFETCHES: 0
LLC6 AVERAGE MISS LATENCY: 222.433 cycles
LLC7 TOTAL     ACCESS: 677933  HIT: 255317  MISS: 422616  HIT %: 37.6611  MISS %: 62.3389  AVERAGE MISS PENALTY: 226.186
LLC7 LOAD      ACCESS:  4840  HIT:  2562  MISS:  2278  HIT %: 52.9339  MISS %: 47.0661  AVERAGE MISS PENALTY: 210.612
LLC7 RFO       ACCESS:     0  HIT:     0  MISS:     0  HIT %:     0  MISS %:     0  AVERAGE MISS PENALTY: 0
LLC7 PREFETCH  ACCESS: 673093  HIT: 252755  MISS: 420338  HIT %: 37.5513  MISS %: 62.4487  AVERAGE MISS PENALTY: 226.27
LLC7 WRITEBACK ACCESS:     0  HIT:     0  MISS:     0  HIT %:     0  MISS %:     0  AVERAGE MISS PENALTY: 0
LLC7 PREFETCH  REQUESTED:     0  ISSUED:     0  USEFUL:  7059  USELESS: 3367638
 USEFUL LOAD PREFETCHES:       7059 PREFETCH ISSUED TO LOWER LEVEL:    3374476  ACCURACY: 0.209188
 TIMELY PREFETCHES:       7059 LATE PREFETCHES: 0 DROPPED PREFETCHES: 0
LLC7 AVERAGE MISS LATENCY: 226.186 cycles
ROI Average ROB Stall Cycles:	5.45877
ROI Total ROB Stalls Cycles:	364104621
ROI TOTAL ROB counter      :	66700861
ROI Average Load ROB Stall Cycles:	15.965
ROI Total Load ROB Stalls Cycle  :	210060769
ROI Total Load ROB stalls Counter:	13157561
Major fault: 0 Minor fault: 1598

CPU 7 cumulative IPC: 0.45635 instructions: 200000000 cycles: 438259805
ITLB TOTAL     ACCESS: 25672197  HIT: 25672197  MISS:     0  HIT %:   100  MISS %:     0  AVERAGE MISS PENALTY: 0
ITLB LOAD      ACCESS: 25672197  HIT: 25672197  MISS:     0  HIT %:   100  MISS %:     0  AVERAGE MISS PENALTY: 0
ITLB RFO       ACCESS:     0  HIT:     0  MISS:     0  HIT %:     0  MISS %:     0  AVERAGE MISS PENALTY: 0
ITLB PREFETCH  ACCESS:     0  HIT:     0  MISS:     0  HIT %:     0  MISS %:     0  AVERAGE MISS PENALTY: 0
ITLB WRITEBACK ACCESS:     0  HIT:     0  MISS:     0  HIT %:     0  MISS %:     0  AVERAGE MISS PENALTY: 0
ITLB PREFETCH  REQUESTED:     0  ISSUED:     0  USEFUL:     0  USELESS:     0
 USEFUL LOAD PREFETCHES:          0 PREFETCH ISSUED TO LOWER LEVEL:          0  ACCURACY: -nan
 TIMELY PREFETCHES:          0 LATE PREFETCHES: 0 DROPPED PREFETCHES: 0
ITLB AVERAGE MISS LATENCY: -nan cycles
DTLB TOTAL     ACCESS: 51050922  HIT: 50962910  MISS: 88012  HIT %: 99.8276  MISS %: 0.1724  AVERAGE MISS PENALTY: 9.26351
DTLB LOAD      ACCESS: 47510837  HIT: 47422825  MISS: 88012  HIT %: 99.8148  MISS %: 0.185246  AVERAGE MISS PENALTY: 9.26351
DTLB RFO       ACCESS: 3540085  HIT: 3540085  MISS:     0  HIT %:   100  MISS %:     0  AVERAGE MISS PENALTY: 0
DTLB PREFETCH  ACCESS:     0  HIT:     0  MISS:     0  HIT %:     0  MISS %:     0  AVERAGE MISS PENALTY: 0
DTLB WRITEBACK ACCESS:     0  HIT:     0  MISS:     0  HIT %:     0  MISS %:     0  AVERAGE MISS PENALTY: 0
DTLB PREFETCH  REQUESTED:     0  ISSUED:     0  USEFUL:     0  USELESS:     0
 USEFUL LOAD PREFETCHES:          0 PREFETCH ISSUED TO LOWER LEVEL:          0  ACCURACY: -nan
 TIMELY PREFETCHES:          0 LATE PREFETCHES: 0 DROPPED PREFETCHES: 0
DTLB AVERAGE MISS LATENCY: 9.26351 cycles
STLB TOTAL     ACCESS: 88012  HIT: 87827  MISS:   185  HIT %: 99.7898  MISS %: 0.210199  AVERAGE MISS PENALTY: 100
STLB LOAD      ACCESS: 88012  HIT: 87827  MISS:   185  HIT %: 99.7898  MISS %: 0.210199  AVERAGE MISS PENALTY: 100
STLB RFO       ACCESS:     0  HIT:     0  MISS:     0  HIT %:     0  MISS %:     0  AVERAGE MISS PENALTY: 0
STLB PREFETCH  ACCESS:     0  HIT:     0  MISS:     0  HIT %:     0  MISS %:     0  AVERAGE MISS PENALTY: 0
STLB WRITEBACK ACCESS:     0  HIT:     0  MISS:     0  HIT %:     0  MISS %:     0  AVERAGE MISS PENALTY: 0
STLB PREFETCH  REQUESTED:     0  ISSUED:     0  USEFUL:     0  USELESS:     0
 USEFUL LOAD PREFETCHES:          0 PREFETCH ISSUED TO LOWER LEVEL:          0  ACCURACY: -nan
 TIMELY PREFETCHES:          0 LATE PREFETCHES: 0 DROPPED PREFETCHES: 0
STLB AVERAGE MISS LATENCY: 100 cycles
L1D TOTAL     ACCESS: 56501701  HIT: 51066439  MISS: 5435262  HIT %: 90.3804  MISS %: 9.61964  AVERAGE MISS PENALTY: 8.38303e+07
L1D LOAD      ACCESS: 33558996  HIT: 32083292  MISS: 1475704  HIT %: 95.6027  MISS %: 4.39734  AVERAGE MISS PENALTY: 3.0876e+08
L1D RFO       ACCESS: 3540229  HIT: 3540229  MISS:     0  HIT %:   100  MISS %:     0  AVERAGE MISS PENALTY: 0
L1D PREFETCH  ACCESS: 19402476  HIT: 15442918  MISS: 3959558  HIT %: 79.5925  MISS %: 20.4075  AVERAGE MISS PENALTY: 180.063
L1D WRITEBACK ACCESS:     0  HIT:     0  MISS:     0  HIT %:     0  MISS %:     0  AVERAGE MISS PENALTY: 0
L1D PREFETCH  REQUESTED: 38274170  ISSUED: 38173825  USEFUL: 3549270  USELESS: 410299
 USEFUL LOAD PREFETCHES:    3549270 PREFETCH ISSUED TO LOWER LEVEL:   14882602  ACCURACY: 23.8485
 TIMELY PREFETCHES:    3549270 LATE PREFETCHES: 2169270 DROPPED PREFETCHES: 100345
L1D AVERAGE MISS LATENCY: 133.303 cycles
L1I TOTAL     ACCESS: 32886780  HIT: 32886780  MISS:     0  HIT %:   100  MISS %:     0  AVERAGE MISS PENALTY: 0
L1I LOAD      ACCESS: 32886780  HIT: 32886780  MISS:     0  HIT %:   100  MISS %:     0  AVERAGE MISS PENALTY: 0
L1I RFO       ACCESS:     0  HIT:     0  MISS:     0  HIT %:     0  MISS %:     0  AVERAGE MISS PENALTY: 0
L1I PREFETCH  ACCESS:     0  HIT:     0  MISS:     0  HIT %:     0  MISS %:     0  AVERAGE MISS PENALTY: 0
L1I WRITEBACK ACCESS:     0  HIT:     0  MISS:     0  HIT %:     0  MISS %:     0  AVERAGE MISS PENALTY: 0
L1I PREFETCH  REQUESTED:     0  ISSUED:     0  USEFUL:     0  USELESS:     0
 USEFUL LOAD PREFETCHES:          0 PREFETCH ISSUED TO LOWER LEVEL:          0  ACCURACY: -nan
 TIMELY PREFETCHES:          0 LATE PREFETCHES: 0 DROPPED PREFETCHES: 0
L1I AVERAGE MISS LATENCY: -nan cycles
L2C TOTAL     ACCESS: 7254714  HIT: 1828994  MISS: 5425720  HIT %: 25.2111  MISS %: 74.7889  AVERAGE MISS PENALTY: 2.98049e+07
L2C LOAD      ACCESS: 1326856  HIT: 534515  MISS: 792341  HIT %: 40.2843  MISS %: 59.7157  AVERAGE MISS PENALTY: 2.04094e+08
L2C RFO       ACCESS:     0  HIT:     0  MISS:     0  HIT %:     0  MISS %:     0  AVERAGE MISS PENALTY: 0
L2C PREFETCH  ACCESS: 5927715  HIT: 1294336  MISS: 4633379  HIT %: 21.8353  MISS %: 78.1647  AVERAGE MISS PENALTY: 188.868
L2C WRITEBACK ACCESS:   143  HIT:   143  MISS:     0  HIT %:   100  MISS %:     0  AVERAGE MISS PENALTY: 0
L2C PREFETCH  REQUESTED: 8979948  ISSUED: 8979936  USEFUL: 531004  USELESS: 4101311
 USEFUL LOAD PREFETCHES:     531004 PREFETCH ISSUED TO LOWER LEVEL:    6795211  ACCURACY: 7.81439
 TIMELY PREFETCHES:     531004 LATE PREFETCHES: 563841 DROPPED PREFETCHES: 12
L2C AVERAGE MISS LATENCY: 159.12 cycles
LLC0 TOTAL     ACCESS: 678634  HIT: 254667  MISS: 423967  HIT %: 37.5264  MISS %: 62.4736  AVERAGE MISS PENALTY: 215.658
LLC0 LOAD      ACCESS: 124279  HIT: 39173  MISS: 85106  HIT %: 31.5202  MISS %: 68.4798  AVERAGE MISS PENALTY: 222.29
LLC0 RFO       ACCESS:     0  HIT:     0  MISS:     0  HIT %:     0  MISS %:     0  AVERAGE MISS PENALTY: 0
LLC0 PREFETCH  ACCESS: 554355  HIT: 215494  MISS: 338861  HIT %: 38.8729  MISS %: 61.1271  AVERAGE MISS PENALTY: 213.992
LLC0 WRITEBACK ACCESS:     0  HIT:     0  MISS:     0  HIT %:     0  MISS %:     0  AVERAGE MISS PENALTY: 0
LLC0 PREFETCH  REQUESTED:     0  ISSUED:     0  USEFUL: 35167  USELESS: 2687773
 USEFUL LOAD PREFETCHES:      35167 PREFETCH ISSUED TO LOWER LEVEL:    2718477  ACCURACY: 1.29363
 TIMELY PREFETCHES:      35167 LATE PREFETCHES: 0 DROPPED PREFETCHES: 0
LLC0 AVERAGE MISS LATENCY: 215.658 cycles
Deadblocks : 554941 Deadblock percentage : 652.059

LLC1 TOTAL     ACCESS: 678518  HIT: 254646  MISS: 423872  HIT %: 37.5297  MISS %: 62.4703  AVERAGE MISS PENALTY: 213.431
LLC1 LOAD      ACCESS: 45881  HIT: 17514  MISS: 28367  HIT %: 38.1727  MISS %: 61.8273  AVERAGE MISS PENALTY: 210.381
LLC1 RFO       ACCESS:     0  HIT:     0  MISS:     0  HIT %:     0  MISS %:     0  AVERAGE MISS PENALTY: 0
LLC1 PREFETCH  ACCESS: 632637  HIT: 237132  MISS: 395505  HIT %: 37.4831  MISS %: 62.5169  AVERAGE MISS PENALTY: 213.65
LLC1 WRITEBACK ACCESS:     0  HIT:     0  MISS:     0  HIT %:     0  MISS %:     0  AVERAGE MISS PENALTY: 0
LLC1 PREFETCH  REQUESTED:     0  ISSUED:     0  USEFUL:  6346  USELESS: 3164898
 USEFUL LOAD PREFETCHES:       6346 PREFETCH ISSUED TO LOWER LEVEL:    3170717  ACCURACY: 0.200144
 TIMELY PREFETCHES:       6346 LATE PREFETCHES: 0 DROPPED PREFETCHES: 0
LLC1 AVERAGE MISS LATENCY: 213.431 cycles
LLC2 TOTAL     ACCESS: 677835  HIT: 253515  MISS: 424320  HIT %: 37.4007  MISS %: 62.5993  AVERAGE MISS PENALTY: 222.453
LLC2 LOAD      ACCESS: 47489  HIT: 13888  MISS: 33601  HIT %: 29.2447  MISS %: 70.7553  AVERAGE MISS PENALTY: 213.079
LLC2 RFO       ACCESS:     0  HIT:     0  MISS:     0  HIT %:     0  MISS %:     0  AVERAGE MISS PENALTY: 0
LLC2 PREFETCH  ACCESS: 630346  HIT: 239627  MISS: 390719  HIT %: 38.0152  MISS %: 61.9848  AVERAGE MISS PENALTY: 223.259
LLC2 WRITEBACK ACCESS:     0  HIT:     0  MISS:     0  HIT %:     0  MISS %:     0  AVERAGE MISS PENALTY: 0
LLC2 PREFETCH  REQUESTED:     0  ISSUED:     0  USEFUL: 38028  USELESS: 3092494
 USEFUL LOAD PREFETCHES:      38028 PREFETCH ISSUED TO LOWER LEVEL:    3128229  ACCURACY: 1.21564
 TIMELY PREFETCHES:      38028 LATE PREFETCHES: 0 DROPPED PREFETCHES: 0
LLC2 AVERAGE MISS LATENCY: 222.453 cycles
LLC3 TOTAL     ACCESS: 677673  HIT: 253814  MISS: 423859  HIT %: 37.4538  MISS %: 62.5462  AVERAGE MISS PENALTY: 223.532
LLC3 LOAD      ACCESS: 32505  HIT: 13280  MISS: 19225  HIT %: 40.8553  MISS %: 59.1447  AVERAGE MISS PENALTY: 233.083
LLC3 RFO       ACCESS:     0  HIT:     0  MISS:     0  HIT %:     0  MISS %:     0  AVERAGE MISS PENALTY: 0
LLC3 PREFETCH  ACCESS: 645168  HIT: 240534  MISS: 404634  HIT %: 37.2824  MISS %: 62.7176  AVERAGE MISS PENALTY: 223.078
LLC3 WRITEBACK ACCESS:     0  HIT:     0  MISS:     0  HIT %:     0  MISS %:     0  AVERAGE MISS PENALTY: 0
LLC3 PREFETCH  REQUESTED:     0  ISSUED:     0  USEFUL: 11656  USELESS: 3234004
 USEFUL LOAD PREFETCHES:      11656 PREFETCH ISSUED TO LOWER LEVEL:    3245134  ACCURACY: 0.359184
 TIMELY PREFETCHES:      11656 LATE PREFETCHES: 0 DROPPED PREFETCHES: 0
LLC3 AVERAGE MISS LATENCY: 223.532 cycles
LLC4 TOTAL     ACCESS: 677927  HIT: 253108  MISS: 424819  HIT %: 37.3356  MISS %: 62.6644  AVERAGE MISS PENALTY: 215.17
LLC4 LOAD      ACCESS: 60514  HIT: 16206  MISS: 44308  HIT %: 26.7806  MISS %: 73.2194  AVERAGE MISS PENALTY: 234.357
LLC4 RFO       ACCESS:     0  HIT:     0  MISS:     0  HIT %:     0  MISS %:     0  AVERAGE MISS PENALTY: 0
LLC4 PREFETCH  ACCESS: 617413  HIT: 236902  MISS: 380511  HIT %: 38.3701  MISS %: 61.6299  AVERAGE MISS PENALTY: 212.936
LLC4 WRITEBACK ACCESS:     0  HIT:     0  MISS:     0  HIT %:     0  MISS %:     0  AVERAGE MISS PENALTY: 0
LLC4 PREFETCH  REQUESTED:     0  ISSUED:     0  USEFUL: 38159  USELESS: 3012853
 USEFUL LOAD PREFETCHES:      38159 PREFETCH ISSUED TO LOWER LEVEL:    3046779  ACCURACY: 1.25244
 TIMELY PREFETCHES:      38159 LATE PREFETCHES: 0 DROPPED PREFETCHES: 0
LLC4 AVERAGE MISS LATENCY: 215.17 cycles
LLC5 TOTAL     ACCESS: 678290  HIT: 254000  MISS: 424290  HIT %: 37.4471  MISS %: 62.5529  AVERAGE MISS PENALTY: 212.015
LLC5 LOAD      ACCESS: 10576  HIT:  5228  MISS:  5348  HIT %: 49.4327  MISS %: 50.5673  AVERAGE MISS PENALTY: 232.072
LLC5 RFO       ACCESS:     0  HIT:     0  MISS:     0  HIT %:     0  MISS %:     0  AVERAGE MISS PENALTY: 0
LLC5 PREFETCH  ACCESS: 667714  HIT: 248772  MISS: 418942  HIT %: 37.2573  MISS %: 62.7427  AVERAGE MISS PENALTY: 211.759
LLC5 WRITEBACK ACCESS:     0  HIT:     0  MISS:     0  HIT %:     0  MISS %:     0  AVERAGE MISS PENALTY: 0
LLC5 PREFETCH  REQUESTED:     0  ISSUED:     0  USEFUL:  8119  USELESS: 3348761
 USEFUL LOAD PREFETCHES:       8119 PREFETCH ISSUED TO LOWER LEVEL:    3356509  ACCURACY: 0.241888
 TIMELY PREFETCHES:       8119 LATE PREFETCHES: 0 DROPPED PREFETCHES: 0
LLC5 AVERAGE MISS LATENCY: 212.015 cycles
LLC6 TOTAL     ACCESS: 678258  HIT: 254714  MISS: 423544  HIT %: 37.5541  MISS %: 62.4459  AVERAGE MISS PENALTY: 221.773
LLC6 LOAD      ACCESS: 41011  HIT: 11218  MISS: 29793  HIT %: 27.3536  MISS %: 72.6464  AVERAGE MISS PENALTY: 198.651
LLC6 RFO       ACCESS:     0  HIT:     0  MISS:     0  HIT %:     0  MISS %:     0  AVERAGE MISS PENALTY: 0
LLC6 PREFETCH  ACCESS: 637247  HIT: 243496  MISS: 393751  HIT %: 38.2106  MISS %: 61.7894  AVERAGE MISS PENALTY: 223.523
LLC6 WRITEBACK ACCESS:     0  HIT:     0  MISS:     0  HIT %:     0  MISS %:     0  AVERAGE MISS PENALTY: 0
LLC6 PREFETCH  REQUESTED:     0  ISSUED:     0  USEFUL: 41465  USELESS: 3119963
 USEFUL LOAD PREFETCHES:      41465 PREFETCH ISSUED TO LOWER LEVEL:    3158129  ACCURACY: 1.31296
 TIMELY PREFETCHES:      41465 LATE PREFETCHES: 0 DROPPED PREFETCHES: 0
LLC6 AVERAGE MISS LATENCY: 221.773 cycles
LLC7 TOTAL     ACCESS: 678585  HIT: 255236  MISS: 423349  HIT %: 37.613  MISS %: 62.387  AVERAGE MISS PENALTY: 225.205
LLC7 LOAD      ACCESS:  4845  HIT:  2543  MISS:  2302  HIT %: 52.4871  MISS %: 47.5129  AVERAGE MISS PENALTY: 210.046
LLC7 RFO       ACCESS:     0  HIT:     0  MISS:     0  HIT %:     0  MISS %:     0  AVERAGE MISS PENALTY: 0
LLC7 PREFETCH  ACCESS: 673740  HIT: 252693  MISS: 421047  HIT %: 37.506  MISS %: 62.494  AVERAGE MISS PENALTY: 225.288
LLC7 WRITEBACK ACCESS:     0  HIT:     0  MISS:     0  HIT %:     0  MISS %:     0  AVERAGE MISS PENALTY: 0
LLC7 PREFETCH  REQUESTED:     0  ISSUED:     0  USEFUL:  7059  USELESS: 3367638
 USEFUL LOAD PREFETCHES:       7059 PREFETCH ISSUED TO LOWER LEVEL:    3374476  ACCURACY: 0.209188
 TIMELY PREFETCHES:       7059 LATE PREFETCHES: 0 DROPPED PREFETCHES: 0
LLC7 AVERAGE MISS LATENCY: 225.205 cycles
ROI Average ROB Stall Cycles:	5.45546
ROI Total ROB Stalls Cycles:	363888531
ROI TOTAL ROB counter      :	66701730
ROI Average Load ROB Stall Cycles:	15.9474
ROI Total Load ROB Stalls Cycle  :	209840457
ROI Total Load ROB stalls Counter:	13158261
Major fault: 0 Minor fault: 1598








Interconnect Stats 
LINK 0 BW : 0LINK 1 BW : 0LINK 2 BW : 0LINK 3 BW : 0LINK 4 BW : 0LINK 5 BW : 0LINK 6 BW : 0LINK 7 BW : 0
DRAM Statistics
 CHANNEL 0
 RQ ROW_BUFFER_HIT: 4378808  ROW_BUFFER_MISS: 9215609
 DBUS_CONGESTED: 5569606
 WQ ROW_BUFFER_HIT:     0  ROW_BUFFER_MISS:     0  FULL:     0

 CHANNEL 1
 RQ ROW_BUFFER_HIT: 4286299  ROW_BUFFER_MISS: 9304508
 DBUS_CONGESTED: 5569606
 WQ ROW_BUFFER_HIT:     0  ROW_BUFFER_MISS:     0  FULL:     0

 AVG_CONGESTED_CYCLE: 4
DRAM PAGES: 2097152
Allocated PAGES: 12782
L2C destructor called
L1D destructor called
L1I destructor called
STLB destructor called
DTLB destructor called
ITLB destructor called
L2C destructor called
L1D destructor called
L1I destructor called
STLB destructor called
DTLB destructor called
ITLB destructor called
L2C destructor called
L1D destructor called
L1I destructor called
STLB destructor called
DTLB destructor called
ITLB destructor called
L2C destructor called
L1D destructor called
L1I destructor called
STLB destructor called
DTLB destructor called
ITLB destructor called
L2C destructor called
L1D destructor called
L1I destructor called
STLB destructor called
DTLB destructor called
ITLB destructor called
L2C destructor called
L1D destructor called
L1I destructor called
STLB destructor called
DTLB destructor called
ITLB destructor called
L2C destructor called
L1D destructor called
L1I destructor called
STLB destructor called
DTLB destructor called
ITLB destructor called
L2C destructor called
L1D destructor called
L1I destructor called
STLB destructor called
DTLB destructor called
ITLB destructor called
