
*** ChampSim Multicore Out-of-Order Simulator ***

Warmup Instructions: 200000000
Simulation Instructions: 200000000
Number of CPUs: 8
threads:1

L1I Configuration:
L1I_SET:64
L1I_WAY:8
L1I_RQ_SIZE:64
L1I_WQ_SIZE:64
L1I_PQ_SIZE:8
L1I_MSHR_SIZE:8

L1D Configuration:
L1D_SET:64
L1D_WAY:12
L1D_RQ_SIZE:64
L1D_WQ_SIZE:64
L1D_PQ_SIZE:8
L1D_MSHR_SIZE:16

L2C Configuration:
L2C_SET:1024
L2C_WAY:8
L2C_RQ_SIZE:32
L2C_WQ_SIZE:32
L2C_PQ_SIZE:16
L2C_MSHR_SIZE:32

LLC Configuration:
LLC_SET:2048
LLC_WAY:16
LLC SLICES:8
LLC_RQ_SIZE:64
LLC_WQ_SIZE:64
LLC_PQ_SIZE:32
LLC_MSHR_SIZE:64

Interconnect OFF
Attacker deprioritize is: OFF
Off-chip DRAM Size: 8192 MB Channels: 2 Width: 64-bit Data Rate: 3200 MT/s
PAGE SIZE in KB: 4.000000 
PAGE SIZE in MB: 0.003906 
PAGE offset in bits: 12 
CEASER-S_LLC:0
MIRAGE : 0
CEASER_LATENCY:3
REMAP : OFF
Partitions : 1
Multi-Step : OFF
BFS : OFF

CPU 0 runs /home/anubhav/spec_2017/627.cam4_s-490B.champsimtrace.xz
CPU 1 runs /home/anubhav/spec_2017/627.cam4_s-490B.champsimtrace.xz
CPU 2 runs /home/anubhav/spec_2017/627.cam4_s-490B.champsimtrace.xz
CPU 3 runs /home/anubhav/spec_2017/627.cam4_s-490B.champsimtrace.xz
CPU 4 runs /home/anubhav/spec_2017/627.cam4_s-490B.champsimtrace.xz
CPU 5 runs /home/anubhav/spec_2017/627.cam4_s-490B.champsimtrace.xz
CPU 6 runs /home/anubhav/spec_2017/627.cam4_s-490B.champsimtrace.xz
CPU 7 runs /home/anubhav/spec_2017/627.cam4_s-490B.champsimtrace.xz
CPU 0 Bimodal branch predictor
Initialize Hawkeye state
Initialize Hawkeye state
Initialize Hawkeye state
Initialize Hawkeye state
Initialize Hawkeye state
Initialize Hawkeye state
Initialize Hawkeye state
Initialize Hawkeye state
CPU 1 Bimodal branch predictor
Initialize Hawkeye state
Initialize Hawkeye state
Initialize Hawkeye state
Initialize Hawkeye state
Initialize Hawkeye state
Initialize Hawkeye state
Initialize Hawkeye state
Initialize Hawkeye state
CPU 2 Bimodal branch predictor
Initialize Hawkeye state
Initialize Hawkeye state
Initialize Hawkeye state
Initialize Hawkeye state
Initialize Hawkeye state
Initialize Hawkeye state
Initialize Hawkeye state
Initialize Hawkeye state
CPU 3 Bimodal branch predictor
Initialize Hawkeye state
Initialize Hawkeye state
Initialize Hawkeye state
Initialize Hawkeye state
Initialize Hawkeye state
Initialize Hawkeye state
Initialize Hawkeye state
Initialize Hawkeye state
CPU 4 Bimodal branch predictor
Initialize Hawkeye state
Initialize Hawkeye state
Initialize Hawkeye state
Initialize Hawkeye state
Initialize Hawkeye state
Initialize Hawkeye state
Initialize Hawkeye state
Initialize Hawkeye state
CPU 5 Bimodal branch predictor
Initialize Hawkeye state
Initialize Hawkeye state
Initialize Hawkeye state
Initialize Hawkeye state
Initialize Hawkeye state
Initialize Hawkeye state
Initialize Hawkeye state
Initialize Hawkeye state
CPU 6 Bimodal branch predictor
Initialize Hawkeye state
Initialize Hawkeye state
Initialize Hawkeye state
Initialize Hawkeye state
Initialize Hawkeye state
Initialize Hawkeye state
Initialize Hawkeye state
Initialize Hawkeye state
CPU 7 Bimodal branch predictor
Initialize Hawkeye state
Initialize Hawkeye state
Initialize Hawkeye state
Initialize Hawkeye state
Initialize Hawkeye state
Initialize Hawkeye state
Initialize Hawkeye state
Initialize Hawkeye state
Heartbeat CPU 5 instructions: 10000001 cycles: 6485864 heartbeat IPC: 1.54181 cumulative IPC: 1.54181 (Simulation time: 2 hr 52 min 32 sec) 
 Total Blocks : 262144 Invalid Blocks : 21325
Heartbeat CPU 3 instructions: 10000001 cycles: 6485890 heartbeat IPC: 1.54181 cumulative IPC: 1.54181 (Simulation time: 2 hr 52 min 41 sec) 
 Total Blocks : 262144 Invalid Blocks : 21325
Heartbeat CPU 2 instructions: 10000001 cycles: 6485902 heartbeat IPC: 1.54181 cumulative IPC: 1.54181 (Simulation time: 2 hr 52 min 41 sec) 
 Total Blocks : 262144 Invalid Blocks : 21325
Heartbeat CPU 7 instructions: 10000001 cycles: 6485909 heartbeat IPC: 1.5418 cumulative IPC: 1.5418 (Simulation time: 2 hr 52 min 41 sec) 
 Total Blocks : 262144 Invalid Blocks : 21325
Heartbeat CPU 6 instructions: 10000001 cycles: 6485919 heartbeat IPC: 1.5418 cumulative IPC: 1.5418 (Simulation time: 2 hr 52 min 41 sec) 
 Total Blocks : 262144 Invalid Blocks : 21325
Heartbeat CPU 4 instructions: 10000001 cycles: 6485925 heartbeat IPC: 1.5418 cumulative IPC: 1.5418 (Simulation time: 2 hr 52 min 41 sec) 
 Total Blocks : 262144 Invalid Blocks : 21325
Heartbeat CPU 0 instructions: 10000001 cycles: 6485974 heartbeat IPC: 1.54179 cumulative IPC: 1.54179 (Simulation time: 2 hr 52 min 41 sec) 
 Total Blocks : 262144 Invalid Blocks : 21325
Heartbeat CPU 1 instructions: 10000001 cycles: 6485989 heartbeat IPC: 1.54179 cumulative IPC: 1.54179 (Simulation time: 2 hr 52 min 41 sec) 
 Total Blocks : 262144 Invalid Blocks : 21325
Heartbeat CPU 5 instructions: 20000002 cycles: 11677952 heartbeat IPC: 1.92601 cumulative IPC: 1.71263 (Simulation time: 5 hr 17 min 12 sec) 
 Total Blocks : 262144 Invalid Blocks : 5529
Heartbeat CPU 3 instructions: 20000002 cycles: 11678066 heartbeat IPC: 1.92597 cumulative IPC: 1.71261 (Simulation time: 5 hr 17 min 21 sec) 
 Total Blocks : 262144 Invalid Blocks : 5529
Heartbeat CPU 4 instructions: 20000002 cycles: 11678090 heartbeat IPC: 1.92598 cumulative IPC: 1.71261 (Simulation time: 5 hr 17 min 24 sec) 
 Total Blocks : 262144 Invalid Blocks : 5529
Heartbeat CPU 7 instructions: 20000002 cycles: 11678104 heartbeat IPC: 1.92597 cumulative IPC: 1.71261 (Simulation time: 5 hr 17 min 24 sec) 
 Total Blocks : 262144 Invalid Blocks : 5529
Heartbeat CPU 2 instructions: 20000002 cycles: 11678105 heartbeat IPC: 1.92596 cumulative IPC: 1.71261 (Simulation time: 5 hr 17 min 24 sec) 
 Total Blocks : 262144 Invalid Blocks : 5529
Heartbeat CPU 6 instructions: 20000002 cycles: 11678246 heartbeat IPC: 1.92592 cumulative IPC: 1.71259 (Simulation time: 5 hr 17 min 24 sec) 
 Total Blocks : 262144 Invalid Blocks : 5529
Heartbeat CPU 0 instructions: 20000002 cycles: 11678355 heartbeat IPC: 1.9259 cumulative IPC: 1.71257 (Simulation time: 5 hr 17 min 25 sec) 
 Total Blocks : 262144 Invalid Blocks : 5529
Heartbeat CPU 1 instructions: 20000002 cycles: 11678657 heartbeat IPC: 1.92579 cumulative IPC: 1.71253 (Simulation time: 5 hr 17 min 25 sec) 
 Total Blocks : 262144 Invalid Blocks : 5529
Heartbeat CPU 3 instructions: 30000002 cycles: 18200912 heartbeat IPC: 1.53307 cumulative IPC: 1.64827 (Simulation time: 7 hr 41 min 34 sec) 
 Total Blocks : 262144 Invalid Blocks : 905
Heartbeat CPU 0 instructions: 30000002 cycles: 18201071 heartbeat IPC: 1.5331 cumulative IPC: 1.64825 (Simulation time: 7 hr 41 min 43 sec) 
 Total Blocks : 262144 Invalid Blocks : 905
Heartbeat CPU 2 instructions: 30000002 cycles: 18201154 heartbeat IPC: 1.53303 cumulative IPC: 1.64825 (Simulation time: 7 hr 42 min 4 sec) 
 Total Blocks : 262144 Invalid Blocks : 905
Heartbeat CPU 5 instructions: 30000002 cycles: 18201188 heartbeat IPC: 1.53298 cumulative IPC: 1.64824 (Simulation time: 7 hr 42 min 4 sec) 
 Total Blocks : 262144 Invalid Blocks : 905
Heartbeat CPU 6 instructions: 30000002 cycles: 18201226 heartbeat IPC: 1.53304 cumulative IPC: 1.64824 (Simulation time: 7 hr 42 min 4 sec) 
 Total Blocks : 262144 Invalid Blocks : 905
Heartbeat CPU 7 instructions: 30000002 cycles: 18201254 heartbeat IPC: 1.533 cumulative IPC: 1.64824 (Simulation time: 7 hr 42 min 5 sec) 
 Total Blocks : 262144 Invalid Blocks : 905
Heartbeat CPU 4 instructions: 30000002 cycles: 18201516 heartbeat IPC: 1.53294 cumulative IPC: 1.64821 (Simulation time: 7 hr 42 min 6 sec) 
 Total Blocks : 262144 Invalid Blocks : 905
Heartbeat CPU 1 instructions: 30000002 cycles: 18201710 heartbeat IPC: 1.53302 cumulative IPC: 1.6482 (Simulation time: 7 hr 42 min 7 sec) 
 Total Blocks : 262144 Invalid Blocks : 905
Heartbeat CPU 3 instructions: 40000000 cycles: 23889737 heartbeat IPC: 1.75783 cumulative IPC: 1.67436 (Simulation time: 9 hr 51 min 41 sec) 
 Total Blocks : 262144 Invalid Blocks : 271
Heartbeat CPU 0 instructions: 40000000 cycles: 23889859 heartbeat IPC: 1.75784 cumulative IPC: 1.67435 (Simulation time: 9 hr 51 min 58 sec) 
 Total Blocks : 262144 Invalid Blocks : 271
Heartbeat CPU 7 instructions: 40000000 cycles: 23890012 heartbeat IPC: 1.75785 cumulative IPC: 1.67434 (Simulation time: 9 hr 52 min 10 sec) 
 Total Blocks : 262144 Invalid Blocks : 271
Heartbeat CPU 2 instructions: 40000000 cycles: 23890033 heartbeat IPC: 1.75782 cumulative IPC: 1.67434 (Simulation time: 9 hr 52 min 10 sec) 
 Total Blocks : 262144 Invalid Blocks : 271
Heartbeat CPU 5 instructions: 40000000 cycles: 23890049 heartbeat IPC: 1.75782 cumulative IPC: 1.67434 (Simulation time: 9 hr 52 min 10 sec) 
 Total Blocks : 262144 Invalid Blocks : 271
Heartbeat CPU 6 instructions: 40000000 cycles: 23890121 heartbeat IPC: 1.75781 cumulative IPC: 1.67433 (Simulation time: 9 hr 52 min 11 sec) 
 Total Blocks : 262144 Invalid Blocks : 271
Heartbeat CPU 4 instructions: 40000000 cycles: 23890320 heartbeat IPC: 1.75784 cumulative IPC: 1.67432 (Simulation time: 9 hr 52 min 11 sec) 
 Total Blocks : 262144 Invalid Blocks : 271
Heartbeat CPU 1 instructions: 40000000 cycles: 23890670 heartbeat IPC: 1.75779 cumulative IPC: 1.67429 (Simulation time: 9 hr 52 min 12 sec) 
 Total Blocks : 262144 Invalid Blocks : 271
Heartbeat CPU 3 instructions: 50000000 cycles: 29612551 heartbeat IPC: 1.74739 cumulative IPC: 1.68847 (Simulation time: 11 hr 56 min 53 sec) 
 Total Blocks : 262144 Invalid Blocks : 70
Heartbeat CPU 0 instructions: 50000000 cycles: 29612819 heartbeat IPC: 1.74735 cumulative IPC: 1.68846 (Simulation time: 11 hr 56 min 58 sec) 
 Total Blocks : 262144 Invalid Blocks : 70
Heartbeat CPU 7 instructions: 50000000 cycles: 29612843 heartbeat IPC: 1.74739 cumulative IPC: 1.68846 (Simulation time: 11 hr 56 min 58 sec) 
 Total Blocks : 262144 Invalid Blocks : 70
Heartbeat CPU 5 instructions: 50000000 cycles: 29612875 heartbeat IPC: 1.74739 cumulative IPC: 1.68845 (Simulation time: 11 hr 56 min 58 sec) 
 Total Blocks : 262144 Invalid Blocks : 70
Heartbeat CPU 2 instructions: 50000000 cycles: 29612920 heartbeat IPC: 1.74737 cumulative IPC: 1.68845 (Simulation time: 11 hr 56 min 59 sec) 
 Total Blocks : 262144 Invalid Blocks : 70
Heartbeat CPU 6 instructions: 50000000 cycles: 29613243 heartbeat IPC: 1.7473 cumulative IPC: 1.68843 (Simulation time: 11 hr 56 min 59 sec) 
 Total Blocks : 262144 Invalid Blocks : 70
Heartbeat CPU 4 instructions: 50000000 cycles: 29613335 heartbeat IPC: 1.74733 cumulative IPC: 1.68843 (Simulation time: 11 hr 56 min 59 sec) 
 Total Blocks : 262144 Invalid Blocks : 70
Heartbeat CPU 1 instructions: 50000000 cycles: 29613882 heartbeat IPC: 1.74727 cumulative IPC: 1.6884 (Simulation time: 11 hr 57 min 0 sec) 
 Total Blocks : 262144 Invalid Blocks : 70
Heartbeat CPU 3 instructions: 60000001 cycles: 35613581 heartbeat IPC: 1.66638 cumulative IPC: 1.68475 (Simulation time: 13 hr 49 min 46 sec) 
 Total Blocks : 262144 Invalid Blocks : 21
Heartbeat CPU 5 instructions: 60000003 cycles: 35613781 heartbeat IPC: 1.66642 cumulative IPC: 1.68474 (Simulation time: 13 hr 50 min 1 sec) 
 Total Blocks : 262144 Invalid Blocks : 21
Heartbeat CPU 0 instructions: 60000001 cycles: 35613959 heartbeat IPC: 1.66635 cumulative IPC: 1.68473 (Simulation time: 13 hr 50 min 2 sec) 
 Total Blocks : 262144 Invalid Blocks : 21
Heartbeat CPU 7 instructions: 60000003 cycles: 35614044 heartbeat IPC: 1.66633 cumulative IPC: 1.68473 (Simulation time: 13 hr 50 min 2 sec) 
 Total Blocks : 262144 Invalid Blocks : 21
Heartbeat CPU 2 instructions: 60000003 cycles: 35614049 heartbeat IPC: 1.66635 cumulative IPC: 1.68473 (Simulation time: 13 hr 50 min 2 sec) 
 Total Blocks : 262144 Invalid Blocks : 21
Heartbeat CPU 4 instructions: 60000001 cycles: 35614126 heartbeat IPC: 1.66645 cumulative IPC: 1.68472 (Simulation time: 13 hr 50 min 2 sec) 
 Total Blocks : 262144 Invalid Blocks : 21
Heartbeat CPU 6 instructions: 60000001 cycles: 35614337 heartbeat IPC: 1.66636 cumulative IPC: 1.68471 (Simulation time: 13 hr 50 min 3 sec) 
 Total Blocks : 262144 Invalid Blocks : 21
Heartbeat CPU 1 instructions: 60000003 cycles: 35614997 heartbeat IPC: 1.66636 cumulative IPC: 1.68468 (Simulation time: 13 hr 50 min 4 sec) 
 Total Blocks : 262144 Invalid Blocks : 21
Heartbeat CPU 3 instructions: 70000000 cycles: 41392182 heartbeat IPC: 1.73052 cumulative IPC: 1.69114 (Simulation time: 15 hr 27 min 16 sec) 
 Total Blocks : 262144 Invalid Blocks : 7
Heartbeat CPU 5 instructions: 70000000 cycles: 41392285 heartbeat IPC: 1.73055 cumulative IPC: 1.69114 (Simulation time: 15 hr 27 min 20 sec) 
 Total Blocks : 262144 Invalid Blocks : 7
Heartbeat CPU 0 instructions: 70000000 cycles: 41392433 heartbeat IPC: 1.73056 cumulative IPC: 1.69113 (Simulation time: 15 hr 27 min 20 sec) 
 Total Blocks : 262144 Invalid Blocks : 7
Heartbeat CPU 7 instructions: 70000000 cycles: 41392514 heartbeat IPC: 1.73056 cumulative IPC: 1.69113 (Simulation time: 15 hr 27 min 20 sec) 
 Total Blocks : 262144 Invalid Blocks : 7
Heartbeat CPU 4 instructions: 70000000 cycles: 41392658 heartbeat IPC: 1.73054 cumulative IPC: 1.69112 (Simulation time: 15 hr 27 min 20 sec) 
 Total Blocks : 262144 Invalid Blocks : 7
Heartbeat CPU 2 instructions: 70000000 cycles: 41392734 heartbeat IPC: 1.7305 cumulative IPC: 1.69112 (Simulation time: 15 hr 27 min 20 sec) 
 Total Blocks : 262144 Invalid Blocks : 7
Heartbeat CPU 6 instructions: 70000000 cycles: 41392936 heartbeat IPC: 1.73052 cumulative IPC: 1.69111 (Simulation time: 15 hr 27 min 20 sec) 
 Total Blocks : 262144 Invalid Blocks : 7
Heartbeat CPU 1 instructions: 70000000 cycles: 41393756 heartbeat IPC: 1.73047 cumulative IPC: 1.69108 (Simulation time: 15 hr 27 min 20 sec) 
 Total Blocks : 262144 Invalid Blocks : 7
Heartbeat CPU 3 instructions: 80000002 cycles: 47465019 heartbeat IPC: 1.64668 cumulative IPC: 1.68545 (Simulation time: 17 hr 0 min 18 sec) 
 Total Blocks : 262144 Invalid Blocks : 4
Heartbeat CPU 7 instructions: 80000002 cycles: 47465092 heartbeat IPC: 1.64675 cumulative IPC: 1.68545 (Simulation time: 17 hr 0 min 39 sec) 
 Total Blocks : 262144 Invalid Blocks : 4
Heartbeat CPU 5 instructions: 80000002 cycles: 47465165 heartbeat IPC: 1.64667 cumulative IPC: 1.68545 (Simulation time: 17 hr 0 min 40 sec) 
 Total Blocks : 262144 Invalid Blocks : 4
Heartbeat CPU 0 instructions: 80000002 cycles: 47465205 heartbeat IPC: 1.64669 cumulative IPC: 1.68545 (Simulation time: 17 hr 0 min 40 sec) 
 Total Blocks : 262144 Invalid Blocks : 4
Heartbeat CPU 2 instructions: 80000002 cycles: 47465275 heartbeat IPC: 1.64676 cumulative IPC: 1.68544 (Simulation time: 17 hr 0 min 40 sec) 
 Total Blocks : 262144 Invalid Blocks : 4
Heartbeat CPU 4 instructions: 80000002 cycles: 47465422 heartbeat IPC: 1.6467 cumulative IPC: 1.68544 (Simulation time: 17 hr 0 min 40 sec) 
 Total Blocks : 262144 Invalid Blocks : 4
Heartbeat CPU 6 instructions: 80000002 cycles: 47465598 heartbeat IPC: 1.64672 cumulative IPC: 1.68543 (Simulation time: 17 hr 0 min 41 sec) 
 Total Blocks : 262144 Invalid Blocks : 4
Heartbeat CPU 1 instructions: 80000002 cycles: 47466563 heartbeat IPC: 1.64669 cumulative IPC: 1.6854 (Simulation time: 17 hr 0 min 43 sec) 
 Total Blocks : 262144 Invalid Blocks : 4
Heartbeat CPU 3 instructions: 90000000 cycles: 53304846 heartbeat IPC: 1.71238 cumulative IPC: 1.6884 (Simulation time: 18 hr 24 min 48 sec) 
 Total Blocks : 262144 Invalid Blocks : 2
Heartbeat CPU 5 instructions: 90000000 cycles: 53304913 heartbeat IPC: 1.7124 cumulative IPC: 1.6884 (Simulation time: 18 hr 24 min 52 sec) 
 Total Blocks : 262144 Invalid Blocks : 2
Heartbeat CPU 7 instructions: 90000000 cycles: 53304951 heartbeat IPC: 1.71237 cumulative IPC: 1.6884 (Simulation time: 18 hr 24 min 52 sec) 
 Total Blocks : 262144 Invalid Blocks : 2
Heartbeat CPU 0 instructions: 90000000 cycles: 53305034 heartbeat IPC: 1.71238 cumulative IPC: 1.6884 (Simulation time: 18 hr 24 min 52 sec) 
 Total Blocks : 262144 Invalid Blocks : 2
Heartbeat CPU 2 instructions: 90000000 cycles: 53305125 heartbeat IPC: 1.71237 cumulative IPC: 1.68839 (Simulation time: 18 hr 24 min 52 sec) 
 Total Blocks : 262144 Invalid Blocks : 2
Heartbeat CPU 6 instructions: 90000000 cycles: 53305222 heartbeat IPC: 1.71244 cumulative IPC: 1.68839 (Simulation time: 18 hr 24 min 52 sec) 
 Total Blocks : 262144 Invalid Blocks : 2
Heartbeat CPU 4 instructions: 90000000 cycles: 53305232 heartbeat IPC: 1.71238 cumulative IPC: 1.68839 (Simulation time: 18 hr 24 min 52 sec) 
 Total Blocks : 262144 Invalid Blocks : 2
Heartbeat CPU 1 instructions: 90000000 cycles: 53306647 heartbeat IPC: 1.7123 cumulative IPC: 1.68834 (Simulation time: 18 hr 24 min 53 sec) 
 Total Blocks : 262144 Invalid Blocks : 2
Heartbeat CPU 5 instructions: 100000001 cycles: 59607542 heartbeat IPC: 1.58664 cumulative IPC: 1.67764 (Simulation time: 19 hr 45 min 49 sec) 
 Total Blocks : 262144 Invalid Blocks : 1
Heartbeat CPU 3 instructions: 100000001 cycles: 59607554 heartbeat IPC: 1.58662 cumulative IPC: 1.67764 (Simulation time: 19 hr 45 min 53 sec) 
 Total Blocks : 262144 Invalid Blocks : 1
Heartbeat CPU 7 instructions: 100000001 cycles: 59607554 heartbeat IPC: 1.58665 cumulative IPC: 1.67764 (Simulation time: 19 hr 45 min 53 sec) 
 Total Blocks : 262144 Invalid Blocks : 1
Heartbeat CPU 4 instructions: 100000001 cycles: 59607732 heartbeat IPC: 1.58667 cumulative IPC: 1.67763 (Simulation time: 19 hr 45 min 53 sec) 
 Total Blocks : 262144 Invalid Blocks : 1
Heartbeat CPU 2 instructions: 100000001 cycles: 59607819 heartbeat IPC: 1.58662 cumulative IPC: 1.67763 (Simulation time: 19 hr 45 min 53 sec) 
 Total Blocks : 262144 Invalid Blocks : 1
Heartbeat CPU 0 instructions: 100000001 cycles: 59607919 heartbeat IPC: 1.58658 cumulative IPC: 1.67763 (Simulation time: 19 hr 45 min 53 sec) 
 Total Blocks : 262144 Invalid Blocks : 1
Heartbeat CPU 6 instructions: 100000001 cycles: 59607936 heartbeat IPC: 1.58662 cumulative IPC: 1.67763 (Simulation time: 19 hr 45 min 53 sec) 
 Total Blocks : 262144 Invalid Blocks : 1
Heartbeat CPU 1 instructions: 100000001 cycles: 59609428 heartbeat IPC: 1.5866 cumulative IPC: 1.67759 (Simulation time: 19 hr 45 min 57 sec) 
 Total Blocks : 262144 Invalid Blocks : 1
Heartbeat CPU 3 instructions: 110000000 cycles: 65293580 heartbeat IPC: 1.7587 cumulative IPC: 1.6847 (Simulation time: 21 hr 13 min 4 sec) 
 Total Blocks : 262144 Invalid Blocks : 0
Heartbeat CPU 7 instructions: 110000000 cycles: 65293668 heartbeat IPC: 1.75867 cumulative IPC: 1.6847 (Simulation time: 21 hr 13 min 7 sec) 
 Total Blocks : 262144 Invalid Blocks : 0
Heartbeat CPU 5 instructions: 110000000 cycles: 65293720 heartbeat IPC: 1.75865 cumulative IPC: 1.68469 (Simulation time: 21 hr 13 min 8 sec) 
 Total Blocks : 262144 Invalid Blocks : 0
Heartbeat CPU 4 instructions: 110000000 cycles: 65293839 heartbeat IPC: 1.75867 cumulative IPC: 1.68469 (Simulation time: 21 hr 13 min 8 sec) 
 Total Blocks : 262144 Invalid Blocks : 0
Heartbeat CPU 2 instructions: 110000000 cycles: 65293992 heartbeat IPC: 1.75865 cumulative IPC: 1.68469 (Simulation time: 21 hr 13 min 8 sec) 
 Total Blocks : 262144 Invalid Blocks : 0
Heartbeat CPU 0 instructions: 110000000 cycles: 65294103 heartbeat IPC: 1.75865 cumulative IPC: 1.68469 (Simulation time: 21 hr 13 min 8 sec) 
 Total Blocks : 262144 Invalid Blocks : 0
Heartbeat CPU 6 instructions: 110000000 cycles: 65294172 heartbeat IPC: 1.75863 cumulative IPC: 1.68468 (Simulation time: 21 hr 13 min 8 sec) 
 Total Blocks : 262144 Invalid Blocks : 0
Heartbeat CPU 1 instructions: 110000000 cycles: 65295630 heartbeat IPC: 1.75864 cumulative IPC: 1.68465 (Simulation time: 21 hr 13 min 8 sec) 
 Total Blocks : 262144 Invalid Blocks : 0
Heartbeat CPU 3 instructions: 120000000 cycles: 71703224 heartbeat IPC: 1.56015 cumulative IPC: 1.67356 (Simulation time: 22 hr 28 min 38 sec) 
 Total Blocks : 262144 Invalid Blocks : 0
Heartbeat CPU 7 instructions: 120000000 cycles: 71703422 heartbeat IPC: 1.56012 cumulative IPC: 1.67356 (Simulation time: 22 hr 28 min 41 sec) 
 Total Blocks : 262144 Invalid Blocks : 0
Heartbeat CPU 4 instructions: 120000000 cycles: 71703466 heartbeat IPC: 1.56015 cumulative IPC: 1.67356 (Simulation time: 22 hr 28 min 41 sec) 
 Total Blocks : 262144 Invalid Blocks : 0
Heartbeat CPU 5 instructions: 120000000 cycles: 71703605 heartbeat IPC: 1.56009 cumulative IPC: 1.67356 (Simulation time: 22 hr 28 min 41 sec) 
 Total Blocks : 262144 Invalid Blocks : 0
Heartbeat CPU 0 instructions: 120000000 cycles: 71703725 heartbeat IPC: 1.56015 cumulative IPC: 1.67355 (Simulation time: 22 hr 28 min 41 sec) 
 Total Blocks : 262144 Invalid Blocks : 0
Heartbeat CPU 2 instructions: 120000000 cycles: 71703780 heartbeat IPC: 1.56011 cumulative IPC: 1.67355 (Simulation time: 22 hr 28 min 41 sec) 
 Total Blocks : 262144 Invalid Blocks : 0
Heartbeat CPU 6 instructions: 120000000 cycles: 71703951 heartbeat IPC: 1.56012 cumulative IPC: 1.67355 (Simulation time: 22 hr 28 min 41 sec) 
 Total Blocks : 262144 Invalid Blocks : 0
Heartbeat CPU 1 instructions: 120000000 cycles: 71705598 heartbeat IPC: 1.56007 cumulative IPC: 1.67351 (Simulation time: 22 hr 28 min 42 sec) 
 Total Blocks : 262144 Invalid Blocks : 0
Heartbeat CPU 3 instructions: 130000000 cycles: 77778436 heartbeat IPC: 1.64603 cumulative IPC: 1.67141 (Simulation time: 23 hr 41 min 3 sec) 
 Total Blocks : 262144 Invalid Blocks : 0
Heartbeat CPU 4 instructions: 130000000 cycles: 77778671 heartbeat IPC: 1.64603 cumulative IPC: 1.67141 (Simulation time: 23 hr 41 min 6 sec) 
 Total Blocks : 262144 Invalid Blocks : 0
Heartbeat CPU 7 instructions: 130000000 cycles: 77778784 heartbeat IPC: 1.64599 cumulative IPC: 1.67141 (Simulation time: 23 hr 41 min 6 sec) 
 Total Blocks : 262144 Invalid Blocks : 0
Heartbeat CPU 5 instructions: 130000000 cycles: 77778819 heartbeat IPC: 1.64603 cumulative IPC: 1.67141 (Simulation time: 23 hr 41 min 6 sec) 
 Total Blocks : 262144 Invalid Blocks : 0
Heartbeat CPU 0 instructions: 130000000 cycles: 77779010 heartbeat IPC: 1.64601 cumulative IPC: 1.6714 (Simulation time: 23 hr 41 min 6 sec) 
 Total Blocks : 262144 Invalid Blocks : 0
Heartbeat CPU 2 instructions: 130000000 cycles: 77779111 heartbeat IPC: 1.646 cumulative IPC: 1.6714 (Simulation time: 23 hr 41 min 6 sec) 
 Total Blocks : 262144 Invalid Blocks : 0
Heartbeat CPU 6 instructions: 130000000 cycles: 77779138 heartbeat IPC: 1.64604 cumulative IPC: 1.6714 (Simulation time: 23 hr 41 min 6 sec) 
 Total Blocks : 262144 Invalid Blocks : 0
Heartbeat CPU 1 instructions: 130000000 cycles: 77780912 heartbeat IPC: 1.64601 cumulative IPC: 1.67136 (Simulation time: 23 hr 41 min 8 sec) 
 Total Blocks : 262144 Invalid Blocks : 0
Heartbeat CPU 3 instructions: 140000003 cycles: 84105550 heartbeat IPC: 1.5805 cumulative IPC: 1.66458 (Simulation time: 24 hr 52 min 50 sec) 
 Total Blocks : 262144 Invalid Blocks : 0
Heartbeat CPU 7 instructions: 140000003 cycles: 84105964 heartbeat IPC: 1.58048 cumulative IPC: 1.66457 (Simulation time: 24 hr 52 min 52 sec) 
 Total Blocks : 262144 Invalid Blocks : 0
Heartbeat CPU 4 instructions: 140000003 cycles: 84106077 heartbeat IPC: 1.58043 cumulative IPC: 1.66456 (Simulation time: 24 hr 52 min 53 sec) 
 Total Blocks : 262144 Invalid Blocks : 0
Heartbeat CPU 5 instructions: 140000003 cycles: 84106150 heartbeat IPC: 1.58045 cumulative IPC: 1.66456 (Simulation time: 24 hr 52 min 53 sec) 
 Total Blocks : 262144 Invalid Blocks : 0
Heartbeat CPU 6 instructions: 140000003 cycles: 84106208 heartbeat IPC: 1.58051 cumulative IPC: 1.66456 (Simulation time: 24 hr 52 min 53 sec) 
 Total Blocks : 262144 Invalid Blocks : 0
Heartbeat CPU 0 instructions: 140000003 cycles: 84106248 heartbeat IPC: 1.58047 cumulative IPC: 1.66456 (Simulation time: 24 hr 52 min 53 sec) 
 Total Blocks : 262144 Invalid Blocks : 0
Heartbeat CPU 2 instructions: 140000003 cycles: 84106261 heartbeat IPC: 1.58049 cumulative IPC: 1.66456 (Simulation time: 24 hr 52 min 53 sec) 
 Total Blocks : 262144 Invalid Blocks : 0
Heartbeat CPU 1 instructions: 140000003 cycles: 84108133 heartbeat IPC: 1.58047 cumulative IPC: 1.66452 (Simulation time: 24 hr 52 min 53 sec) 
 Total Blocks : 262144 Invalid Blocks : 0
Heartbeat CPU 3 instructions: 150000001 cycles: 90914264 heartbeat IPC: 1.46871 cumulative IPC: 1.64991 (Simulation time: 25 hr 54 min 50 sec) 
 Total Blocks : 262144 Invalid Blocks : 0
Heartbeat CPU 4 instructions: 150000001 cycles: 90914635 heartbeat IPC: 1.46874 cumulative IPC: 1.6499 (Simulation time: 25 hr 54 min 53 sec) 
 Total Blocks : 262144 Invalid Blocks : 0
Heartbeat CPU 5 instructions: 150000001 cycles: 90914719 heartbeat IPC: 1.46874 cumulative IPC: 1.6499 (Simulation time: 25 hr 54 min 53 sec) 
 Total Blocks : 262144 Invalid Blocks : 0
Heartbeat CPU 7 instructions: 150000001 cycles: 90914727 heartbeat IPC: 1.4687 cumulative IPC: 1.6499 (Simulation time: 25 hr 54 min 53 sec) 
 Total Blocks : 262144 Invalid Blocks : 0
Heartbeat CPU 6 instructions: 150000001 cycles: 90914832 heartbeat IPC: 1.46873 cumulative IPC: 1.6499 (Simulation time: 25 hr 54 min 53 sec) 
 Total Blocks : 262144 Invalid Blocks : 0
Heartbeat CPU 0 instructions: 150000001 cycles: 90914951 heartbeat IPC: 1.46871 cumulative IPC: 1.64989 (Simulation time: 25 hr 54 min 53 sec) 
 Total Blocks : 262144 Invalid Blocks : 0
Heartbeat CPU 2 instructions: 150000001 cycles: 90914989 heartbeat IPC: 1.4687 cumulative IPC: 1.64989 (Simulation time: 25 hr 54 min 53 sec) 
 Total Blocks : 262144 Invalid Blocks : 0
Heartbeat CPU 1 instructions: 150000001 cycles: 90916960 heartbeat IPC: 1.46868 cumulative IPC: 1.64986 (Simulation time: 25 hr 54 min 54 sec) 
 Total Blocks : 262144 Invalid Blocks : 0
Heartbeat CPU 3 instructions: 160000001 cycles: 97240344 heartbeat IPC: 1.58076 cumulative IPC: 1.64541 (Simulation time: 27 hr 6 min 43 sec) 
 Total Blocks : 262144 Invalid Blocks : 0
Heartbeat CPU 7 instructions: 160000001 cycles: 97240487 heartbeat IPC: 1.58084 cumulative IPC: 1.64541 (Simulation time: 27 hr 6 min 44 sec) 
 Total Blocks : 262144 Invalid Blocks : 0
Heartbeat CPU 4 instructions: 160000001 cycles: 97240576 heartbeat IPC: 1.58079 cumulative IPC: 1.6454 (Simulation time: 27 hr 6 min 44 sec) 
 Total Blocks : 262144 Invalid Blocks : 0
Heartbeat CPU 6 instructions: 160000001 cycles: 97240646 heartbeat IPC: 1.58082 cumulative IPC: 1.6454 (Simulation time: 27 hr 6 min 44 sec) 
 Total Blocks : 262144 Invalid Blocks : 0
Heartbeat CPU 5 instructions: 160000001 cycles: 97240676 heartbeat IPC: 1.58079 cumulative IPC: 1.6454 (Simulation time: 27 hr 6 min 44 sec) 
 Total Blocks : 262144 Invalid Blocks : 0
Heartbeat CPU 0 instructions: 160000001 cycles: 97240812 heartbeat IPC: 1.58081 cumulative IPC: 1.6454 (Simulation time: 27 hr 6 min 44 sec) 
 Total Blocks : 262144 Invalid Blocks : 0
Heartbeat CPU 2 instructions: 160000001 cycles: 97240865 heartbeat IPC: 1.58081 cumulative IPC: 1.6454 (Simulation time: 27 hr 6 min 44 sec) 
 Total Blocks : 262144 Invalid Blocks : 0
Heartbeat CPU 1 instructions: 160000001 cycles: 97242912 heartbeat IPC: 1.58079 cumulative IPC: 1.64536 (Simulation time: 27 hr 6 min 45 sec) 
 Total Blocks : 262144 Invalid Blocks : 0
Heartbeat CPU 3 instructions: 170000001 cycles: 104023847 heartbeat IPC: 1.47416 cumulative IPC: 1.63424 (Simulation time: 28 hr 11 min 11 sec) 
 Total Blocks : 262144 Invalid Blocks : 0
Heartbeat CPU 4 instructions: 170000001 cycles: 104024021 heartbeat IPC: 1.47418 cumulative IPC: 1.63424 (Simulation time: 28 hr 11 min 14 sec) 
 Total Blocks : 262144 Invalid Blocks : 0
Heartbeat CPU 7 instructions: 170000001 cycles: 104024077 heartbeat IPC: 1.47415 cumulative IPC: 1.63424 (Simulation time: 28 hr 11 min 14 sec) 
 Total Blocks : 262144 Invalid Blocks : 0
Heartbeat CPU 6 instructions: 170000001 cycles: 104024112 heartbeat IPC: 1.47417 cumulative IPC: 1.63424 (Simulation time: 28 hr 11 min 14 sec) 
 Total Blocks : 262144 Invalid Blocks : 0
Heartbeat CPU 0 instructions: 170000001 cycles: 104024181 heartbeat IPC: 1.47419 cumulative IPC: 1.63424 (Simulation time: 28 hr 11 min 14 sec) 
 Total Blocks : 262144 Invalid Blocks : 0
Heartbeat CPU 5 instructions: 170000001 cycles: 104024279 heartbeat IPC: 1.47414 cumulative IPC: 1.63423 (Simulation time: 28 hr 11 min 14 sec) 
 Total Blocks : 262144 Invalid Blocks : 0
Heartbeat CPU 2 instructions: 170000001 cycles: 104024558 heartbeat IPC: 1.47412 cumulative IPC: 1.63423 (Simulation time: 28 hr 11 min 14 sec) 
 Total Blocks : 262144 Invalid Blocks : 0
Heartbeat CPU 1 instructions: 170000001 cycles: 104026537 heartbeat IPC: 1.47414 cumulative IPC: 1.6342 (Simulation time: 28 hr 11 min 14 sec) 
 Total Blocks : 262144 Invalid Blocks : 0
Heartbeat CPU 3 instructions: 180000001 cycles: 110548827 heartbeat IPC: 1.53257 cumulative IPC: 1.62824 (Simulation time: 29 hr 13 min 33 sec) 
 Total Blocks : 262144 Invalid Blocks : 0
Heartbeat CPU 6 instructions: 180000001 cycles: 110548965 heartbeat IPC: 1.5326 cumulative IPC: 1.62824 (Simulation time: 29 hr 13 min 51 sec) 
 Total Blocks : 262144 Invalid Blocks : 0
Heartbeat CPU 7 instructions: 180000001 cycles: 110549097 heartbeat IPC: 1.53256 cumulative IPC: 1.62824 (Simulation time: 29 hr 13 min 51 sec) 
 Total Blocks : 262144 Invalid Blocks : 0
Heartbeat CPU 4 instructions: 180000001 cycles: 110549122 heartbeat IPC: 1.53254 cumulative IPC: 1.62824 (Simulation time: 29 hr 13 min 51 sec) 
 Total Blocks : 262144 Invalid Blocks : 0
Heartbeat CPU 0 instructions: 180000001 cycles: 110549173 heartbeat IPC: 1.53257 cumulative IPC: 1.62823 (Simulation time: 29 hr 13 min 51 sec) 
 Total Blocks : 262144 Invalid Blocks : 0
Heartbeat CPU 5 instructions: 180000001 cycles: 110549238 heartbeat IPC: 1.53258 cumulative IPC: 1.62823 (Simulation time: 29 hr 13 min 51 sec) 
 Total Blocks : 262144 Invalid Blocks : 0
Heartbeat CPU 2 instructions: 180000001 cycles: 110549488 heartbeat IPC: 1.53258 cumulative IPC: 1.62823 (Simulation time: 29 hr 13 min 52 sec) 
 Total Blocks : 262144 Invalid Blocks : 0
Heartbeat CPU 1 instructions: 180000001 cycles: 110551576 heartbeat IPC: 1.53256 cumulative IPC: 1.6282 (Simulation time: 29 hr 13 min 54 sec) 
 Total Blocks : 262144 Invalid Blocks : 0
Heartbeat CPU 3 instructions: 190000000 cycles: 117252544 heartbeat IPC: 1.49171 cumulative IPC: 1.62043 (Simulation time: 30 hr 18 min 18 sec) 
 Total Blocks : 262144 Invalid Blocks : 0
Heartbeat CPU 6 instructions: 190000000 cycles: 117252760 heartbeat IPC: 1.49169 cumulative IPC: 1.62043 (Simulation time: 30 hr 18 min 20 sec) 
 Total Blocks : 262144 Invalid Blocks : 0
Heartbeat CPU 4 instructions: 190000000 cycles: 117252842 heartbeat IPC: 1.49171 cumulative IPC: 1.62043 (Simulation time: 30 hr 18 min 20 sec) 
 Total Blocks : 262144 Invalid Blocks : 0
Heartbeat CPU 7 instructions: 190000000 cycles: 117252929 heartbeat IPC: 1.49168 cumulative IPC: 1.62043 (Simulation time: 30 hr 18 min 20 sec) 
 Total Blocks : 262144 Invalid Blocks : 0
Heartbeat CPU 0 instructions: 190000000 cycles: 117253107 heartbeat IPC: 1.49166 cumulative IPC: 1.62043 (Simulation time: 30 hr 18 min 20 sec) 
 Total Blocks : 262144 Invalid Blocks : 0
Heartbeat CPU 5 instructions: 190000000 cycles: 117253124 heartbeat IPC: 1.49167 cumulative IPC: 1.62043 (Simulation time: 30 hr 18 min 20 sec) 
 Total Blocks : 262144 Invalid Blocks : 0
Heartbeat CPU 2 instructions: 190000000 cycles: 117253255 heartbeat IPC: 1.4917 cumulative IPC: 1.62042 (Simulation time: 30 hr 18 min 21 sec) 
 Total Blocks : 262144 Invalid Blocks : 0
Heartbeat CPU 1 instructions: 190000000 cycles: 117255366 heartbeat IPC: 1.49169 cumulative IPC: 1.62039 (Simulation time: 30 hr 18 min 22 sec) 
 Total Blocks : 262144 Invalid Blocks : 0
Heartbeat CPU 3 instructions: 200000000 cycles: 124150778 heartbeat IPC: 1.44965 cumulative IPC: 1.61094 (Simulation time: 31 hr 18 min 2 sec) 
 Total Blocks : 262144 Invalid Blocks : 0
Heartbeat CPU 4 instructions: 200000000 cycles: 124150963 heartbeat IPC: 1.44967 cumulative IPC: 1.61094 (Simulation time: 31 hr 18 min 5 sec) 
 Total Blocks : 262144 Invalid Blocks : 0
Heartbeat CPU 6 instructions: 200000000 cycles: 124151018 heartbeat IPC: 1.44964 cumulative IPC: 1.61094 (Simulation time: 31 hr 18 min 5 sec) 
 Total Blocks : 262144 Invalid Blocks : 0
Heartbeat CPU 5 instructions: 200000000 cycles: 124151217 heartbeat IPC: 1.44968 cumulative IPC: 1.61094 (Simulation time: 31 hr 18 min 5 sec) 
 Total Blocks : 262144 Invalid Blocks : 0
Heartbeat CPU 7 instructions: 200000000 cycles: 124151296 heartbeat IPC: 1.44962 cumulative IPC: 1.61094 (Simulation time: 31 hr 18 min 5 sec) 
 Total Blocks : 262144 Invalid Blocks : 0
Heartbeat CPU 0 instructions: 200000000 cycles: 124151380 heartbeat IPC: 1.44964 cumulative IPC: 1.61094 (Simulation time: 31 hr 18 min 5 sec) 
 Total Blocks : 262144 Invalid Blocks : 0
Heartbeat CPU 2 instructions: 200000000 cycles: 124151429 heartbeat IPC: 1.44966 cumulative IPC: 1.61094 (Simulation time: 31 hr 18 min 5 sec) 
 Total Blocks : 262144 Invalid Blocks : 0
Heartbeat CPU 1 instructions: 200000000 cycles: 124153542 heartbeat IPC: 1.44966 cumulative IPC: 1.61091 (Simulation time: 31 hr 18 min 6 sec) 
 Total Blocks : 262144 Invalid Blocks : 0

Warmup complete CPU 0 instructions: 200003641 cycles: 124153543 (Simulation time: 31 hr 18 min 6 sec) 
Warmup complete CPU 1 instructions: 200000004 cycles: 124153543 (Simulation time: 31 hr 18 min 6 sec) 
Warmup complete CPU 2 instructions: 200003489 cycles: 124153542 (Simulation time: 31 hr 18 min 6 sec) 
Warmup complete CPU 3 instructions: 200005424 cycles: 124153542 (Simulation time: 31 hr 18 min 6 sec) 
Warmup complete CPU 4 instructions: 200004921 cycles: 124153542 (Simulation time: 31 hr 18 min 6 sec) 
Warmup complete CPU 5 instructions: 200004043 cycles: 124153542 (Simulation time: 31 hr 18 min 6 sec) 
Warmup complete CPU 6 instructions: 200004701 cycles: 124153542 (Simulation time: 31 hr 18 min 6 sec) 
Warmup complete CPU 7 instructions: 200003941 cycles: 124153542 (Simulation time: 31 hr 18 min 6 sec) 

Heartbeat CPU 6 instructions: 210000002 cycles: 140773107 heartbeat IPC: 0.601609 cumulative IPC: 0.601418 (Simulation time: 32 hr 42 min 11 sec) 
 Total Blocks : 262144 Invalid Blocks : 0
Heartbeat CPU 1 instructions: 210000000 cycles: 140806012 heartbeat IPC: 0.600511 cumulative IPC: 0.600511 (Simulation time: 32 hr 42 min 22 sec) 
 Total Blocks : 262144 Invalid Blocks : 0
Heartbeat CPU 4 instructions: 210000002 cycles: 141601108 heartbeat IPC: 0.573061 cumulative IPC: 0.572864 (Simulation time: 32 hr 45 min 58 sec) 
 Total Blocks : 262144 Invalid Blocks : 0
Heartbeat CPU 3 instructions: 210000000 cycles: 141830186 heartbeat IPC: 0.56563 cumulative IPC: 0.565411 (Simulation time: 32 hr 46 min 46 sec) 
 Total Blocks : 262144 Invalid Blocks : 0
Heartbeat CPU 0 instructions: 210000000 cycles: 141843647 heartbeat IPC: 0.565219 cumulative IPC: 0.565082 (Simulation time: 32 hr 46 min 54 sec) 
 Total Blocks : 262144 Invalid Blocks : 0
Heartbeat CPU 2 instructions: 210000002 cycles: 141885897 heartbeat IPC: 0.563874 cumulative IPC: 0.563744 (Simulation time: 32 hr 47 min 3 sec) 
 Total Blocks : 262144 Invalid Blocks : 0
Heartbeat CPU 7 instructions: 210000000 cycles: 141885945 heartbeat IPC: 0.563868 cumulative IPC: 0.563717 (Simulation time: 32 hr 47 min 3 sec) 
 Total Blocks : 262144 Invalid Blocks : 0
Heartbeat CPU 5 instructions: 210000002 cycles: 141941363 heartbeat IPC: 0.562109 cumulative IPC: 0.561955 (Simulation time: 32 hr 47 min 12 sec) 
 Total Blocks : 262144 Invalid Blocks : 0
Heartbeat CPU 6 instructions: 220000000 cycles: 156077939 heartbeat IPC: 0.653388 cumulative IPC: 0.626333 (Simulation time: 34 hr 4 min 41 sec) 
 Total Blocks : 262144 Invalid Blocks : 0
Heartbeat CPU 1 instructions: 220000000 cycles: 156148181 heartbeat IPC: 0.651798 cumulative IPC: 0.625105 (Simulation time: 34 hr 5 min 2 sec) 
 Total Blocks : 262144 Invalid Blocks : 0
Heartbeat CPU 4 instructions: 220000000 cycles: 157369814 heartbeat IPC: 0.634167 cumulative IPC: 0.601966 (Simulation time: 34 hr 10 min 35 sec) 
 Total Blocks : 262144 Invalid Blocks : 0
Heartbeat CPU 0 instructions: 220000000 cycles: 157588214 heartbeat IPC: 0.63514 cumulative IPC: 0.598073 (Simulation time: 34 hr 11 min 37 sec) 
 Total Blocks : 262144 Invalid Blocks : 0
Heartbeat CPU 3 instructions: 220000000 cycles: 157779047 heartbeat IPC: 0.627004 cumulative IPC: 0.594625 (Simulation time: 34 hr 12 min 35 sec) 
 Total Blocks : 262144 Invalid Blocks : 0
Heartbeat CPU 7 instructions: 220000000 cycles: 157806707 heartbeat IPC: 0.628111 cumulative IPC: 0.594181 (Simulation time: 34 hr 12 min 42 sec) 
 Total Blocks : 262144 Invalid Blocks : 0
Heartbeat CPU 5 instructions: 220000000 cycles: 157831852 heartbeat IPC: 0.629307 cumulative IPC: 0.593734 (Simulation time: 34 hr 12 min 48 sec) 
 Total Blocks : 262144 Invalid Blocks : 0
Heartbeat CPU 2 instructions: 220000000 cycles: 157855867 heartbeat IPC: 0.626175 cumulative IPC: 0.593327 (Simulation time: 34 hr 12 min 54 sec) 
 Total Blocks : 262144 Invalid Blocks : 0
Heartbeat CPU 1 instructions: 230000001 cycles: 171028154 heartbeat IPC: 0.672044 cumulative IPC: 0.640005 (Simulation time: 35 hr 21 min 38 sec) 
 Total Blocks : 262144 Invalid Blocks : 0
Heartbeat CPU 6 instructions: 230000001 cycles: 171100699 heartbeat IPC: 0.665657 cumulative IPC: 0.638916 (Simulation time: 35 hr 21 min 57 sec) 
 Total Blocks : 262144 Invalid Blocks : 0
Heartbeat CPU 4 instructions: 230000001 cycles: 172612112 heartbeat IPC: 0.656069 cumulative IPC: 0.618984 (Simulation time: 35 hr 29 min 39 sec) 
 Total Blocks : 262144 Invalid Blocks : 0
Heartbeat CPU 0 instructions: 230000001 cycles: 173336185 heartbeat IPC: 0.635002 cumulative IPC: 0.609897 (Simulation time: 35 hr 34 min 3 sec) 
 Total Blocks : 262144 Invalid Blocks : 0
Heartbeat CPU 7 instructions: 230000001 cycles: 174344520 heartbeat IPC: 0.604675 cumulative IPC: 0.597638 (Simulation time: 35 hr 39 min 14 sec) 
 Total Blocks : 262144 Invalid Blocks : 0
Heartbeat CPU 3 instructions: 230000001 cycles: 174361309 heartbeat IPC: 0.603054 cumulative IPC: 0.597409 (Simulation time: 35 hr 39 min 18 sec) 
 Total Blocks : 262144 Invalid Blocks : 0
Heartbeat CPU 2 instructions: 230000001 cycles: 174499515 heartbeat IPC: 0.60083 cumulative IPC: 0.595808 (Simulation time: 35 hr 40 min 6 sec) 
 Total Blocks : 262144 Invalid Blocks : 0
Heartbeat CPU 5 instructions: 230000001 cycles: 174516124 heartbeat IPC: 0.599367 cumulative IPC: 0.5956 (Simulation time: 35 hr 40 min 11 sec) 
 Total Blocks : 262144 Invalid Blocks : 0
Heartbeat CPU 1 instructions: 240000000 cycles: 186541217 heartbeat IPC: 0.644618 cumulative IPC: 0.641152 (Simulation time: 36 hr 41 min 42 sec) 
 Total Blocks : 262144 Invalid Blocks : 0
Heartbeat CPU 6 instructions: 240000000 cycles: 186659338 heartbeat IPC: 0.64273 cumulative IPC: 0.639865 (Simulation time: 36 hr 42 min 20 sec) 
 Total Blocks : 262144 Invalid Blocks : 0
Heartbeat CPU 4 instructions: 240000000 cycles: 186943253 heartbeat IPC: 0.697781 cumulative IPC: 0.636969 (Simulation time: 36 hr 43 min 26 sec) 
 Total Blocks : 262144 Invalid Blocks : 0
Heartbeat CPU 0 instructions: 240000000 cycles: 187292086 heartbeat IPC: 0.716543 cumulative IPC: 0.63347 (Simulation time: 36 hr 44 min 56 sec) 
 Total Blocks : 262144 Invalid Blocks : 0
Heartbeat CPU 7 instructions: 240000000 cycles: 188984585 heartbeat IPC: 0.683057 cumulative IPC: 0.616928 (Simulation time: 36 hr 52 min 39 sec) 
 Total Blocks : 262144 Invalid Blocks : 0
Heartbeat CPU 3 instructions: 240000000 cycles: 189174029 heartbeat IPC: 0.675095 cumulative IPC: 0.615107 (Simulation time: 36 hr 53 min 21 sec) 
 Total Blocks : 262144 Invalid Blocks : 0
Heartbeat CPU 2 instructions: 240000000 cycles: 189478118 heartbeat IPC: 0.667619 cumulative IPC: 0.612274 (Simulation time: 36 hr 54 min 55 sec) 
 Total Blocks : 262144 Invalid Blocks : 0
Heartbeat CPU 5 instructions: 240000000 cycles: 189508348 heartbeat IPC: 0.667012 cumulative IPC: 0.611982 (Simulation time: 36 hr 55 min 11 sec) 
 Total Blocks : 262144 Invalid Blocks : 0
Heartbeat CPU 1 instructions: 250000000 cycles: 202212262 heartbeat IPC: 0.63812 cumulative IPC: 0.640543 (Simulation time: 38 hr 3 min 59 sec) 
 Total Blocks : 262144 Invalid Blocks : 0
Heartbeat CPU 6 instructions: 250000000 cycles: 202514011 heartbeat IPC: 0.630729 cumulative IPC: 0.638017 (Simulation time: 38 hr 5 min 27 sec) 
 Total Blocks : 262144 Invalid Blocks : 0
Heartbeat CPU 4 instructions: 250000000 cycles: 202629293 heartbeat IPC: 0.63751 cumulative IPC: 0.637077 (Simulation time: 38 hr 6 min 17 sec) 
 Total Blocks : 262144 Invalid Blocks : 0
Heartbeat CPU 0 instructions: 250000000 cycles: 202768784 heartbeat IPC: 0.646133 cumulative IPC: 0.635963 (Simulation time: 38 hr 6 min 49 sec) 
 Total Blocks : 262144 Invalid Blocks : 0
Heartbeat CPU 7 instructions: 250000000 cycles: 203929929 heartbeat IPC: 0.669105 cumulative IPC: 0.626702 (Simulation time: 38 hr 13 min 16 sec) 
 Total Blocks : 262144 Invalid Blocks : 0
Heartbeat CPU 3 instructions: 250000000 cycles: 204734495 heartbeat IPC: 0.642654 cumulative IPC: 0.620427 (Simulation time: 38 hr 17 min 15 sec) 
 Total Blocks : 262144 Invalid Blocks : 0
Heartbeat CPU 2 instructions: 250000000 cycles: 205340071 heartbeat IPC: 0.630439 cumulative IPC: 0.615823 (Simulation time: 38 hr 18 min 58 sec) 
 Total Blocks : 262144 Invalid Blocks : 0
Heartbeat CPU 5 instructions: 250000000 cycles: 205388970 heartbeat IPC: 0.629698 cumulative IPC: 0.615445 (Simulation time: 38 hr 19 min 21 sec) 
 Total Blocks : 262144 Invalid Blocks : 0
Heartbeat CPU 1 instructions: 260000002 cycles: 217818223 heartbeat IPC: 0.640781 cumulative IPC: 0.640583 (Simulation time: 39 hr 19 min 33 sec) 
 Total Blocks : 262144 Invalid Blocks : 0
Heartbeat CPU 6 instructions: 260000002 cycles: 218657950 heartbeat IPC: 0.619428 cumulative IPC: 0.634841 (Simulation time: 39 hr 23 min 35 sec) 
 Total Blocks : 262144 Invalid Blocks : 0
Heartbeat CPU 4 instructions: 260000002 cycles: 218835420 heartbeat IPC: 0.617051 cumulative IPC: 0.633649 (Simulation time: 39 hr 24 min 34 sec) 
 Total Blocks : 262144 Invalid Blocks : 0
Heartbeat CPU 0 instructions: 260000003 cycles: 218931575 heartbeat IPC: 0.618705 cumulative IPC: 0.63302 (Simulation time: 39 hr 24 min 55 sec) 
 Total Blocks : 262144 Invalid Blocks : 0
Heartbeat CPU 7 instructions: 260000002 cycles: 219385765 heartbeat IPC: 0.647005 cumulative IPC: 0.629997 (Simulation time: 39 hr 27 min 15 sec) 
 Total Blocks : 262144 Invalid Blocks : 0
Heartbeat CPU 3 instructions: 260000002 cycles: 220198282 heartbeat IPC: 0.646672 cumulative IPC: 0.624652 (Simulation time: 39 hr 31 min 36 sec) 
 Total Blocks : 262144 Invalid Blocks : 0
Heartbeat CPU 2 instructions: 260000002 cycles: 221401341 heartbeat IPC: 0.622616 cumulative IPC: 0.616945 (Simulation time: 39 hr 38 min 0 sec) 
 Total Blocks : 262144 Invalid Blocks : 0
Heartbeat CPU 5 instructions: 260000002 cycles: 221536608 heartbeat IPC: 0.619286 cumulative IPC: 0.616082 (Simulation time: 39 hr 38 min 46 sec) 
 Total Blocks : 262144 Invalid Blocks : 0
Heartbeat CPU 1 instructions: 270000000 cycles: 232658179 heartbeat IPC: 0.673856 cumulative IPC: 0.645134 (Simulation time: 40 hr 35 min 33 sec) 
 Total Blocks : 262144 Invalid Blocks : 0
Heartbeat CPU 6 instructions: 270000000 cycles: 233928118 heartbeat IPC: 0.654872 cumulative IPC: 0.637628 (Simulation time: 40 hr 41 min 15 sec) 
 Total Blocks : 262144 Invalid Blocks : 0
Heartbeat CPU 4 instructions: 270000000 cycles: 234201866 heartbeat IPC: 0.650768 cumulative IPC: 0.636039 (Simulation time: 40 hr 42 min 14 sec) 
 Total Blocks : 262144 Invalid Blocks : 0
Heartbeat CPU 0 instructions: 270000000 cycles: 234264972 heartbeat IPC: 0.652171 cumulative IPC: 0.635687 (Simulation time: 40 hr 42 min 31 sec) 
 Total Blocks : 262144 Invalid Blocks : 0
Heartbeat CPU 7 instructions: 270000000 cycles: 234428166 heartbeat IPC: 0.664787 cumulative IPC: 0.634743 (Simulation time: 40 hr 43 min 12 sec) 
 Total Blocks : 262144 Invalid Blocks : 0
Heartbeat CPU 3 instructions: 270000000 cycles: 234636832 heartbeat IPC: 0.69259 cumulative IPC: 0.633531 (Simulation time: 40 hr 44 min 12 sec) 
 Total Blocks : 262144 Invalid Blocks : 0
Heartbeat CPU 2 instructions: 270000000 cycles: 236101225 heartbeat IPC: 0.680277 cumulative IPC: 0.625261 (Simulation time: 40 hr 52 min 20 sec) 
 Total Blocks : 262144 Invalid Blocks : 0
Heartbeat CPU 5 instructions: 270000000 cycles: 236237929 heartbeat IPC: 0.680211 cumulative IPC: 0.624493 (Simulation time: 40 hr 53 min 1 sec) 
 Total Blocks : 262144 Invalid Blocks : 0
Heartbeat CPU 1 instructions: 280000002 cycles: 247364272 heartbeat IPC: 0.67999 cumulative IPC: 0.649294 (Simulation time: 41 hr 47 min 31 sec) 
 Total Blocks : 262144 Invalid Blocks : 0
Heartbeat CPU 6 instructions: 280000002 cycles: 249004266 heartbeat IPC: 0.6633 cumulative IPC: 0.640728 (Simulation time: 41 hr 57 min 13 sec) 
 Total Blocks : 262144 Invalid Blocks : 0
Heartbeat CPU 4 instructions: 280000002 cycles: 249665971 heartbeat IPC: 0.646659 cumulative IPC: 0.637348 (Simulation time: 42 hr 0 min 59 sec) 
 Total Blocks : 262144 Invalid Blocks : 0
Heartbeat CPU 0 instructions: 280000002 cycles: 249858266 heartbeat IPC: 0.641301 cumulative IPC: 0.636383 (Simulation time: 42 hr 2 min 13 sec) 
 Total Blocks : 262144 Invalid Blocks : 0
Heartbeat CPU 7 instructions: 280000002 cycles: 250120346 heartbeat IPC: 0.63726 cumulative IPC: 0.635057 (Simulation time: 42 hr 3 min 56 sec) 
 Total Blocks : 262144 Invalid Blocks : 0
Heartbeat CPU 3 instructions: 280000002 cycles: 250344474 heartbeat IPC: 0.636633 cumulative IPC: 0.633917 (Simulation time: 42 hr 5 min 24 sec) 
 Total Blocks : 262144 Invalid Blocks : 0
Heartbeat CPU 2 instructions: 280000002 cycles: 251408139 heartbeat IPC: 0.6533 cumulative IPC: 0.628634 (Simulation time: 42 hr 11 min 51 sec) 
 Total Blocks : 262144 Invalid Blocks : 0
Heartbeat CPU 5 instructions: 280000002 cycles: 251689623 heartbeat IPC: 0.647178 cumulative IPC: 0.627242 (Simulation time: 42 hr 13 min 23 sec) 
 Total Blocks : 262144 Invalid Blocks : 0
Heartbeat CPU 1 instructions: 290000001 cycles: 262286314 heartbeat IPC: 0.67015 cumulative IPC: 0.651547 (Simulation time: 43 hr 6 min 41 sec) 
 Total Blocks : 262144 Invalid Blocks : 0
Heartbeat CPU 6 instructions: 290000001 cycles: 263498005 heartbeat IPC: 0.689953 cumulative IPC: 0.645848 (Simulation time: 43 hr 12 min 16 sec) 
 Total Blocks : 262144 Invalid Blocks : 0
Heartbeat CPU 4 instructions: 290000001 cycles: 264217756 heartbeat IPC: 0.687201 cumulative IPC: 0.642527 (Simulation time: 43 hr 16 min 22 sec) 
 Total Blocks : 262144 Invalid Blocks : 0
Heartbeat CPU 0 instructions: 290000001 cycles: 264592524 heartbeat IPC: 0.67869 cumulative IPC: 0.640822 (Simulation time: 43 hr 18 min 41 sec) 
 Total Blocks : 262144 Invalid Blocks : 0
Heartbeat CPU 7 instructions: 290000001 cycles: 265090656 heartbeat IPC: 0.667989 cumulative IPC: 0.638555 (Simulation time: 43 hr 21 min 28 sec) 
 Total Blocks : 262144 Invalid Blocks : 0
Heartbeat CPU 3 instructions: 290000001 cycles: 265181948 heartbeat IPC: 0.673969 cumulative IPC: 0.638131 (Simulation time: 43 hr 22 min 5 sec) 
 Total Blocks : 262144 Invalid Blocks : 0
Heartbeat CPU 2 instructions: 290000001 cycles: 266061437 heartbeat IPC: 0.68244 cumulative IPC: 0.63419 (Simulation time: 43 hr 26 min 17 sec) 
 Total Blocks : 262144 Invalid Blocks : 0
Heartbeat CPU 5 instructions: 290000001 cycles: 266242653 heartbeat IPC: 0.687142 cumulative IPC: 0.633377 (Simulation time: 43 hr 27 min 7 sec) 
 Total Blocks : 262144 Invalid Blocks : 0
Heartbeat CPU 1 instructions: 300000001 cycles: 276957080 heartbeat IPC: 0.681628 cumulative IPC: 0.654435 (Simulation time: 44 hr 19 min 20 sec) 
 Total Blocks : 262144 Invalid Blocks : 0
Heartbeat CPU 6 instructions: 300000001 cycles: 278048608 heartbeat IPC: 0.687257 cumulative IPC: 0.649763 (Simulation time: 44 hr 25 min 38 sec) 
 Total Blocks : 262144 Invalid Blocks : 0
Heartbeat CPU 4 instructions: 300000001 cycles: 278629197 heartbeat IPC: 0.693893 cumulative IPC: 0.647319 (Simulation time: 44 hr 28 min 40 sec) 
 Total Blocks : 262144 Invalid Blocks : 0
Heartbeat CPU 0 instructions: 300000001 cycles: 279262261 heartbeat IPC: 0.681675 cumulative IPC: 0.644686 (Simulation time: 44 hr 32 min 28 sec) 
 Total Blocks : 262144 Invalid Blocks : 0
Heartbeat CPU 7 instructions: 300000001 cycles: 280047008 heartbeat IPC: 0.668612 cumulative IPC: 0.641438 (Simulation time: 44 hr 37 min 15 sec) 
 Total Blocks : 262144 Invalid Blocks : 0
Heartbeat CPU 3 instructions: 300000001 cycles: 280169646 heartbeat IPC: 0.667214 cumulative IPC: 0.640925 (Simulation time: 44 hr 37 min 50 sec) 
 Total Blocks : 262144 Invalid Blocks : 0
Heartbeat CPU 2 instructions: 300000001 cycles: 281071971 heartbeat IPC: 0.666199 cumulative IPC: 0.637252 (Simulation time: 44 hr 42 min 50 sec) 
 Total Blocks : 262144 Invalid Blocks : 0
Heartbeat CPU 5 instructions: 300000001 cycles: 281324170 heartbeat IPC: 0.663063 cumulative IPC: 0.636225 (Simulation time: 44 hr 44 min 12 sec) 
 Total Blocks : 262144 Invalid Blocks : 0
Heartbeat CPU 1 instructions: 310000000 cycles: 291855069 heartbeat IPC: 0.671231 cumulative IPC: 0.655927 (Simulation time: 45 hr 34 min 56 sec) 
 Total Blocks : 262144 Invalid Blocks : 0
Heartbeat CPU 6 instructions: 310000000 cycles: 292997674 heartbeat IPC: 0.668938 cumulative IPC: 0.651461 (Simulation time: 45 hr 41 min 21 sec) 
 Total Blocks : 262144 Invalid Blocks : 0
Heartbeat CPU 4 instructions: 310000000 cycles: 293457040 heartbeat IPC: 0.674407 cumulative IPC: 0.649692 (Simulation time: 45 hr 43 min 34 sec) 
 Total Blocks : 262144 Invalid Blocks : 0
Heartbeat CPU 0 instructions: 310000000 cycles: 293887381 heartbeat IPC: 0.683755 cumulative IPC: 0.648052 (Simulation time: 45 hr 45 min 39 sec) 
 Total Blocks : 262144 Invalid Blocks : 0
Heartbeat CPU 7 instructions: 310000000 cycles: 294941352 heartbeat IPC: 0.671396 cumulative IPC: 0.644051 (Simulation time: 45 hr 50 min 18 sec) 
 Total Blocks : 262144 Invalid Blocks : 0
Heartbeat CPU 3 instructions: 310000000 cycles: 295185251 heartbeat IPC: 0.665974 cumulative IPC: 0.643124 (Simulation time: 45 hr 51 min 24 sec) 
 Total Blocks : 262144 Invalid Blocks : 0
Heartbeat CPU 2 instructions: 310000000 cycles: 296153233 heartbeat IPC: 0.663074 cumulative IPC: 0.639516 (Simulation time: 45 hr 55 min 27 sec) 
 Total Blocks : 262144 Invalid Blocks : 0
Heartbeat CPU 5 instructions: 310000000 cycles: 296426126 heartbeat IPC: 0.662166 cumulative IPC: 0.638499 (Simulation time: 45 hr 56 min 34 sec) 
 Total Blocks : 262144 Invalid Blocks : 0
Heartbeat CPU 1 instructions: 320000002 cycles: 306756792 heartbeat IPC: 0.671063 cumulative IPC: 0.657162 (Simulation time: 46 hr 38 min 59 sec) 
 Total Blocks : 262144 Invalid Blocks : 0
Heartbeat CPU 6 instructions: 320000002 cycles: 308522372 heartbeat IPC: 0.644135 cumulative IPC: 0.650844 (Simulation time: 46 hr 46 min 56 sec) 
 Total Blocks : 262144 Invalid Blocks : 0
Heartbeat CPU 4 instructions: 320000002 cycles: 308736455 heartbeat IPC: 0.654475 cumulative IPC: 0.650088 (Simulation time: 46 hr 48 min 10 sec) 
 Total Blocks : 262144 Invalid Blocks : 0
Heartbeat CPU 0 instructions: 320000002 cycles: 309089819 heartbeat IPC: 0.657789 cumulative IPC: 0.648852 (Simulation time: 46 hr 49 min 46 sec) 
 Total Blocks : 262144 Invalid Blocks : 0
Heartbeat CPU 7 instructions: 320000002 cycles: 310297547 heartbeat IPC: 0.651203 cumulative IPC: 0.644641 (Simulation time: 46 hr 55 min 19 sec) 
 Total Blocks : 262144 Invalid Blocks : 0
Heartbeat CPU 3 instructions: 320000002 cycles: 310470690 heartbeat IPC: 0.654218 cumulative IPC: 0.644034 (Simulation time: 46 hr 56 min 11 sec) 
 Total Blocks : 262144 Invalid Blocks : 0
Heartbeat CPU 2 instructions: 320000002 cycles: 311905400 heartbeat IPC: 0.634833 cumulative IPC: 0.639123 (Simulation time: 47 hr 2 min 42 sec) 
 Total Blocks : 262144 Invalid Blocks : 0
Heartbeat CPU 5 instructions: 320000002 cycles: 312138073 heartbeat IPC: 0.636458 cumulative IPC: 0.638329 (Simulation time: 47 hr 3 min 35 sec) 
 Total Blocks : 262144 Invalid Blocks : 0
Heartbeat CPU 1 instructions: 330000000 cycles: 321297235 heartbeat IPC: 0.687737 cumulative IPC: 0.659417 (Simulation time: 47 hr 40 min 42 sec) 
 Total Blocks : 262144 Invalid Blocks : 0
Heartbeat CPU 6 instructions: 330000000 cycles: 323370844 heartbeat IPC: 0.67347 cumulative IPC: 0.65253 (Simulation time: 47 hr 49 min 41 sec) 
 Total Blocks : 262144 Invalid Blocks : 0
Heartbeat CPU 4 instructions: 330000000 cycles: 323883492 heartbeat IPC: 0.660195 cumulative IPC: 0.650854 (Simulation time: 47 hr 51 min 40 sec) 
 Total Blocks : 262144 Invalid Blocks : 0
Heartbeat CPU 0 instructions: 330000000 cycles: 323950273 heartbeat IPC: 0.672927 cumulative IPC: 0.650643 (Simulation time: 47 hr 51 min 55 sec) 
 Total Blocks : 262144 Invalid Blocks : 0
Heartbeat CPU 7 instructions: 330000000 cycles: 324730101 heartbeat IPC: 0.692878 cumulative IPC: 0.648112 (Simulation time: 47 hr 55 min 18 sec) 
 Total Blocks : 262144 Invalid Blocks : 0
Heartbeat CPU 3 instructions: 330000000 cycles: 324979537 heartbeat IPC: 0.689234 cumulative IPC: 0.6473 (Simulation time: 47 hr 56 min 20 sec) 
 Total Blocks : 262144 Invalid Blocks : 0
Heartbeat CPU 2 instructions: 330000000 cycles: 326335336 heartbeat IPC: 0.693004 cumulative IPC: 0.642968 (Simulation time: 48 hr 1 min 12 sec) 
 Total Blocks : 262144 Invalid Blocks : 0
Heartbeat CPU 5 instructions: 330000000 cycles: 326759438 heartbeat IPC: 0.683931 cumulative IPC: 0.64162 (Simulation time: 48 hr 2 min 42 sec) 
 Total Blocks : 262144 Invalid Blocks : 0
Heartbeat CPU 1 instructions: 340000001 cycles: 335734571 heartbeat IPC: 0.692649 cumulative IPC: 0.661685 (Simulation time: 48 hr 43 min 18 sec) 
 Total Blocks : 262144 Invalid Blocks : 0
Heartbeat CPU 6 instructions: 340000001 cycles: 338118804 heartbeat IPC: 0.67806 cumulative IPC: 0.65429 (Simulation time: 48 hr 55 min 8 sec) 
 Total Blocks : 262144 Invalid Blocks : 0
Heartbeat CPU 4 instructions: 340000001 cycles: 339070674 heartbeat IPC: 0.65845 cumulative IPC: 0.651391 (Simulation time: 48 hr 59 min 46 sec) 
 Total Blocks : 262144 Invalid Blocks : 0
Heartbeat CPU 0 instructions: 340000001 cycles: 339171009 heartbeat IPC: 0.656999 cumulative IPC: 0.651093 (Simulation time: 49 hr 0 min 8 sec) 
 Total Blocks : 262144 Invalid Blocks : 0
Heartbeat CPU 7 instructions: 340000001 cycles: 339824625 heartbeat IPC: 0.662492 cumulative IPC: 0.649118 (Simulation time: 49 hr 3 min 30 sec) 
 Total Blocks : 262144 Invalid Blocks : 0
Heartbeat CPU 3 instructions: 340000001 cycles: 339837021 heartbeat IPC: 0.673062 cumulative IPC: 0.649074 (Simulation time: 49 hr 3 min 33 sec) 
 Total Blocks : 262144 Invalid Blocks : 0
Heartbeat CPU 2 instructions: 340000001 cycles: 340962561 heartbeat IPC: 0.683657 cumulative IPC: 0.645714 (Simulation time: 49 hr 7 min 58 sec) 
 Total Blocks : 262144 Invalid Blocks : 0
Heartbeat CPU 5 instructions: 340000001 cycles: 341647059 heartbeat IPC: 0.671699 cumulative IPC: 0.643679 (Simulation time: 49 hr 10 min 49 sec) 
 Total Blocks : 262144 Invalid Blocks : 0
Heartbeat CPU 1 instructions: 350000001 cycles: 351448838 heartbeat IPC: 0.636364 cumulative IPC: 0.659934 (Simulation time: 49 hr 50 min 30 sec) 
 Total Blocks : 262144 Invalid Blocks : 0
Heartbeat CPU 6 instructions: 350000001 cycles: 353058166 heartbeat IPC: 0.669373 cumulative IPC: 0.655274 (Simulation time: 49 hr 56 min 28 sec) 
 Total Blocks : 262144 Invalid Blocks : 0
Heartbeat CPU 4 instructions: 350000001 cycles: 354205723 heartbeat IPC: 0.660718 cumulative IPC: 0.652005 (Simulation time: 50 hr 0 min 10 sec) 
 Total Blocks : 262144 Invalid Blocks : 0
Heartbeat CPU 0 instructions: 350000001 cycles: 354340536 heartbeat IPC: 0.659216 cumulative IPC: 0.651628 (Simulation time: 50 hr 0 min 37 sec) 
 Total Blocks : 262144 Invalid Blocks : 0
Heartbeat CPU 7 instructions: 350000001 cycles: 354727843 heartbeat IPC: 0.670996 cumulative IPC: 0.650532 (Simulation time: 50 hr 2 min 0 sec) 
 Total Blocks : 262144 Invalid Blocks : 0
Heartbeat CPU 3 instructions: 350000001 cycles: 354792529 heartbeat IPC: 0.66865 cumulative IPC: 0.650344 (Simulation time: 50 hr 2 min 11 sec) 
 Total Blocks : 262144 Invalid Blocks : 0
Heartbeat CPU 2 instructions: 350000001 cycles: 355601745 heartbeat IPC: 0.683098 cumulative IPC: 0.648078 (Simulation time: 50 hr 4 min 44 sec) 
 Total Blocks : 262144 Invalid Blocks : 0
Heartbeat CPU 5 instructions: 350000001 cycles: 356439586 heartbeat IPC: 0.676017 cumulative IPC: 0.645738 (Simulation time: 50 hr 8 min 1 sec) 
 Total Blocks : 262144 Invalid Blocks : 0
Heartbeat CPU 1 instructions: 360000001 cycles: 365757199 heartbeat IPC: 0.698892 cumulative IPC: 0.662242 (Simulation time: 50 hr 47 min 50 sec) 
 Total Blocks : 262144 Invalid Blocks : 0
Heartbeat CPU 6 instructions: 360000001 cycles: 367487711 heartbeat IPC: 0.693023 cumulative IPC: 0.657513 (Simulation time: 50 hr 55 min 49 sec) 
 Total Blocks : 262144 Invalid Blocks : 0
Heartbeat CPU 4 instructions: 360000001 cycles: 368932594 heartbeat IPC: 0.679031 cumulative IPC: 0.653631 (Simulation time: 51 hr 1 min 4 sec) 
 Total Blocks : 262144 Invalid Blocks : 0
Heartbeat CPU 0 instructions: 360000001 cycles: 369397633 heartbeat IPC: 0.664139 cumulative IPC: 0.652396 (Simulation time: 51 hr 2 min 32 sec) 
 Total Blocks : 262144 Invalid Blocks : 0
Heartbeat CPU 3 instructions: 360000001 cycles: 369874774 heartbeat IPC: 0.663031 cumulative IPC: 0.651122 (Simulation time: 51 hr 4 min 14 sec) 
 Total Blocks : 262144 Invalid Blocks : 0
Heartbeat CPU 7 instructions: 360000001 cycles: 370025495 heartbeat IPC: 0.653695 cumulative IPC: 0.650729 (Simulation time: 51 hr 4 min 40 sec) 
 Total Blocks : 262144 Invalid Blocks : 0
Heartbeat CPU 2 instructions: 360000001 cycles: 370445110 heartbeat IPC: 0.673702 cumulative IPC: 0.649622 (Simulation time: 51 hr 6 min 9 sec) 
 Total Blocks : 262144 Invalid Blocks : 0
Heartbeat CPU 5 instructions: 360000001 cycles: 371070706 heartbeat IPC: 0.683475 cumulative IPC: 0.647974 (Simulation time: 51 hr 8 min 44 sec) 
 Total Blocks : 262144 Invalid Blocks : 0
Heartbeat CPU 1 instructions: 370000000 cycles: 381254322 heartbeat IPC: 0.645281 cumulative IPC: 0.661219 (Simulation time: 51 hr 47 min 27 sec) 
 Total Blocks : 262144 Invalid Blocks : 0
Heartbeat CPU 6 instructions: 370000000 cycles: 382547809 heartbeat IPC: 0.664006 cumulative IPC: 0.657891 (Simulation time: 51 hr 51 min 21 sec) 
 Total Blocks : 262144 Invalid Blocks : 0
Heartbeat CPU 4 instructions: 370000000 cycles: 383832915 heartbeat IPC: 0.671126 cumulative IPC: 0.654635 (Simulation time: 51 hr 56 min 5 sec) 
 Total Blocks : 262144 Invalid Blocks : 0
Heartbeat CPU 0 instructions: 370000000 cycles: 384651697 heartbeat IPC: 0.655563 cumulative IPC: 0.652582 (Simulation time: 51 hr 59 min 13 sec) 
 Total Blocks : 262144 Invalid Blocks : 0
Heartbeat CPU 3 instructions: 370000000 cycles: 385542674 heartbeat IPC: 0.638248 cumulative IPC: 0.650351 (Simulation time: 52 hr 2 min 58 sec) 
 Total Blocks : 262144 Invalid Blocks : 0
Heartbeat CPU 7 instructions: 370000000 cycles: 385728685 heartbeat IPC: 0.636813 cumulative IPC: 0.649894 (Simulation time: 52 hr 3 min 43 sec) 
 Total Blocks : 262144 Invalid Blocks : 0
Heartbeat CPU 2 instructions: 370000000 cycles: 386116699 heartbeat IPC: 0.638097 cumulative IPC: 0.648933 (Simulation time: 52 hr 5 min 24 sec) 
 Total Blocks : 262144 Invalid Blocks : 0
Heartbeat CPU 5 instructions: 370000000 cycles: 386575329 heartbeat IPC: 0.644969 cumulative IPC: 0.647797 (Simulation time: 52 hr 7 min 27 sec) 
 Total Blocks : 262144 Invalid Blocks : 0
Heartbeat CPU 1 instructions: 380000003 cycles: 395379945 heartbeat IPC: 0.707934 cumulative IPC: 0.663652 (Simulation time: 52 hr 44 min 51 sec) 
 Total Blocks : 262144 Invalid Blocks : 0
Heartbeat CPU 6 instructions: 380000003 cycles: 397046068 heartbeat IPC: 0.689738 cumulative IPC: 0.659583 (Simulation time: 52 hr 50 min 36 sec) 
 Total Blocks : 262144 Invalid Blocks : 0
Heartbeat CPU 4 instructions: 380000003 cycles: 397913341 heartbeat IPC: 0.710206 cumulative IPC: 0.657493 (Simulation time: 52 hr 53 min 42 sec) 
 Total Blocks : 262144 Invalid Blocks : 0
Heartbeat CPU 0 instructions: 380000003 cycles: 398621082 heartbeat IPC: 0.715851 cumulative IPC: 0.655802 (Simulation time: 52 hr 56 min 35 sec) 
 Total Blocks : 262144 Invalid Blocks : 0
Heartbeat CPU 3 instructions: 380000003 cycles: 399539399 heartbeat IPC: 0.714453 cumulative IPC: 0.653609 (Simulation time: 53 hr 0 min 10 sec) 
 Total Blocks : 262144 Invalid Blocks : 0
Heartbeat CPU 7 instructions: 380000003 cycles: 400113239 heartbeat IPC: 0.69519 cumulative IPC: 0.652255 (Simulation time: 53 hr 2 min 18 sec) 
 Total Blocks : 262144 Invalid Blocks : 0
Heartbeat CPU 2 instructions: 380000003 cycles: 400549478 heartbeat IPC: 0.692867 cumulative IPC: 0.651227 (Simulation time: 53 hr 3 min 52 sec) 
 Total Blocks : 262144 Invalid Blocks : 0
Heartbeat CPU 5 instructions: 380000003 cycles: 400833587 heartbeat IPC: 0.701348 cumulative IPC: 0.650556 (Simulation time: 53 hr 4 min 58 sec) 
 Total Blocks : 262144 Invalid Blocks : 0
Heartbeat CPU 1 instructions: 390000002 cycles: 429606514 heartbeat IPC: 0.292171 cumulative IPC: 0.622027 (Simulation time: 54 hr 40 min 41 sec) 
 Total Blocks : 262144 Invalid Blocks : 0
Heartbeat CPU 6 instructions: 390000002 cycles: 432594983 heartbeat IPC: 0.281303 cumulative IPC: 0.615985 (Simulation time: 54 hr 52 min 25 sec) 
 Total Blocks : 262144 Invalid Blocks : 0
Heartbeat CPU 4 instructions: 390000002 cycles: 433766473 heartbeat IPC: 0.278916 cumulative IPC: 0.613654 (Simulation time: 54 hr 58 min 4 sec) 
 Total Blocks : 262144 Invalid Blocks : 0
Heartbeat CPU 0 instructions: 390000002 cycles: 434536517 heartbeat IPC: 0.278432 cumulative IPC: 0.612135 (Simulation time: 55 hr 1 min 55 sec) 
 Total Blocks : 262144 Invalid Blocks : 0
Heartbeat CPU 3 instructions: 390000002 cycles: 435587555 heartbeat IPC: 0.277407 cumulative IPC: 0.610064 (Simulation time: 55 hr 7 min 45 sec) 
 Total Blocks : 262144 Invalid Blocks : 0
Heartbeat CPU 7 instructions: 390000002 cycles: 436259652 heartbeat IPC: 0.276653 cumulative IPC: 0.608755 (Simulation time: 55 hr 11 min 32 sec) 
 Total Blocks : 262144 Invalid Blocks : 0
Heartbeat CPU 2 instructions: 390000002 cycles: 436532232 heartbeat IPC: 0.277911 cumulative IPC: 0.608225 (Simulation time: 55 hr 13 min 3 sec) 
 Total Blocks : 262144 Invalid Blocks : 0
Heartbeat CPU 5 instructions: 390000002 cycles: 436679752 heartbeat IPC: 0.27897 cumulative IPC: 0.607936 (Simulation time: 55 hr 13 min 46 sec) 
 Total Blocks : 262144 Invalid Blocks : 0
Heartbeat CPU 1 instructions: 400000000 cycles: 441453250 heartbeat IPC: 0.844114 cumulative IPC: 0.630319 (Simulation time: 55 hr 38 min 56 sec) 
 Total Blocks : 262144 Invalid Blocks : 0
Finished CPU 1 instructions: 200000001 cycles: 317299718 cumulative IPC: 0.630319 (Simulation time: 55 hr 38 min 57 sec) 
Heartbeat CPU 6 instructions: 400000000 cycles: 444063238 heartbeat IPC: 0.871972 cumulative IPC: 0.625162 (Simulation time: 55 hr 52 min 45 sec) 
 Total Blocks : 262144 Invalid Blocks : 0
Finished CPU 6 instructions: 200000000 cycles: 319915058 cumulative IPC: 0.625166 (Simulation time: 55 hr 52 min 47 sec) 
Heartbeat CPU 4 instructions: 400000000 cycles: 445193741 heartbeat IPC: 0.8751 cumulative IPC: 0.62296 (Simulation time: 55 hr 58 min 46 sec) 
 Total Blocks : 262144 Invalid Blocks : 0
Finished CPU 4 instructions: 200000000 cycles: 321045815 cumulative IPC: 0.622964 (Simulation time: 55 hr 58 min 50 sec) 
Heartbeat CPU 0 instructions: 400000000 cycles: 445814323 heartbeat IPC: 0.886697 cumulative IPC: 0.621762 (Simulation time: 56 hr 1 min 57 sec) 
 Total Blocks : 262144 Invalid Blocks : 0
Finished CPU 0 instructions: 200000000 cycles: 321664914 cumulative IPC: 0.621765 (Simulation time: 56 hr 1 min 58 sec) 
Heartbeat CPU 3 instructions: 400000000 cycles: 447048540 heartbeat IPC: 0.872525 cumulative IPC: 0.61938 (Simulation time: 56 hr 8 min 42 sec) 
 Total Blocks : 262144 Invalid Blocks : 0
Finished CPU 3 instructions: 200000001 cycles: 322901156 cumulative IPC: 0.619385 (Simulation time: 56 hr 8 min 46 sec) 
Heartbeat CPU 7 instructions: 400000000 cycles: 447525957 heartbeat IPC: 0.887602 cumulative IPC: 0.61847 (Simulation time: 56 hr 11 min 9 sec) 
 Total Blocks : 262144 Invalid Blocks : 0
Finished CPU 7 instructions: 200000000 cycles: 323376872 cumulative IPC: 0.618473 (Simulation time: 56 hr 11 min 12 sec) 
Heartbeat CPU 2 instructions: 400000000 cycles: 447800917 heartbeat IPC: 0.887415 cumulative IPC: 0.617946 (Simulation time: 56 hr 12 min 38 sec) 
 Total Blocks : 262144 Invalid Blocks : 0
Finished CPU 2 instructions: 200000003 cycles: 323651321 cumulative IPC: 0.617949 (Simulation time: 56 hr 12 min 40 sec) 
Heartbeat CPU 5 instructions: 400000000 cycles: 448062131 heartbeat IPC: 0.878551 cumulative IPC: 0.617446 (Simulation time: 56 hr 14 min 6 sec) 
 Total Blocks : 262144 Invalid Blocks : 0
Finished CPU 5 instructions: 200000000 cycles: 323913159 cumulative IPC: 0.617449 (Simulation time: 56 hr 14 min 8 sec) 

CPU 0 Branch Prediction Accuracy: 85.9134% MPKI: 13.1185 Average ROB Occupancy at Mispredict: 47.692

CPU 1 Branch Prediction Accuracy: 86.0959% MPKI: 12.9029 Average ROB Occupancy at Mispredict: 47.7018

CPU 2 Branch Prediction Accuracy: 85.8168% MPKI: 13.2325 Average ROB Occupancy at Mispredict: 47.6415

CPU 3 Branch Prediction Accuracy: 85.8541% MPKI: 13.1892 Average ROB Occupancy at Mispredict: 47.653

CPU 4 Branch Prediction Accuracy: 85.9401% MPKI: 13.0856 Average ROB Occupancy at Mispredict: 47.6769

CPU 5 Branch Prediction Accuracy: 85.8047% MPKI: 13.2477 Average ROB Occupancy at Mispredict: 47.6473

CPU 6 Branch Prediction Accuracy: 85.9957% MPKI: 13.0198 Average ROB Occupancy at Mispredict: 47.721

CPU 7 Branch Prediction Accuracy: 85.8295% MPKI: 13.2166 Average ROB Occupancy at Mispredict: 47.6555

ChampSim completed all CPUs

Total Simulation Statistics (not including warmup)

CPU 0 cumulative IPC: 0.623605 instructions: 201993808 cycles: 323913158
ITLB TOTAL     ACCESS: 29209461  HIT: 29209453  MISS:     8  HIT %:   100  MISS %: 2.73884e-05  AVERAGE MISS PENALTY: 182.5
ITLB LOAD      ACCESS: 29209461  HIT: 29209453  MISS:     8  HIT %:   100  MISS %: 2.73884e-05  AVERAGE MISS PENALTY: 182.5
ITLB RFO       ACCESS:     0  HIT:     0  MISS:     0  HIT %:     0  MISS %:     0  AVERAGE MISS PENALTY: 0
ITLB PREFETCH  ACCESS:     0  HIT:     0  MISS:     0  HIT %:     0  MISS %:     0  AVERAGE MISS PENALTY: 0
ITLB WRITEBACK ACCESS:     0  HIT:     0  MISS:     0  HIT %:     0  MISS %:     0  AVERAGE MISS PENALTY: 0

DTLB TOTAL     ACCESS: 34357587  HIT: 34292193  MISS: 65394  HIT %: 99.8097  MISS %: 0.190334  AVERAGE MISS PENALTY: 19.0629
DTLB LOAD      ACCESS: 23484664  HIT: 23440838  MISS: 43826  HIT %: 99.8134  MISS %: 0.186615  AVERAGE MISS PENALTY: 19.7731
DTLB RFO       ACCESS: 10872923  HIT: 10851355  MISS: 21568  HIT %: 99.8016  MISS %: 0.198364  AVERAGE MISS PENALTY: 17.6196
DTLB PREFETCH  ACCESS:     0  HIT:     0  MISS:     0  HIT %:     0  MISS %:     0  AVERAGE MISS PENALTY: 0
DTLB WRITEBACK ACCESS:     0  HIT:     0  MISS:     0  HIT %:     0  MISS %:     0  AVERAGE MISS PENALTY: 0

STLB TOTAL     ACCESS: 65402  HIT: 58974  MISS:  6428  HIT %: 90.1716  MISS %: 9.82845  AVERAGE MISS PENALTY: 100
STLB LOAD      ACCESS: 43834  HIT: 39263  MISS:  4571  HIT %: 89.572  MISS %: 10.428  AVERAGE MISS PENALTY: 100
STLB RFO       ACCESS: 21568  HIT: 19711  MISS:  1857  HIT %: 91.39  MISS %: 8.60998  AVERAGE MISS PENALTY: 100
STLB PREFETCH  ACCESS:     0  HIT:     0  MISS:     0  HIT %:     0  MISS %:     0  AVERAGE MISS PENALTY: 0
STLB WRITEBACK ACCESS:     0  HIT:     0  MISS:     0  HIT %:     0  MISS %:     0  AVERAGE MISS PENALTY: 0

L1D TOTAL     ACCESS: 40747335  HIT: 37027937  MISS: 3719398  HIT %: 90.872  MISS %: 9.12795  AVERAGE MISS PENALTY: 3.09773e+07
L1D LOAD      ACCESS: 21769493  HIT: 21235081  MISS: 534412  HIT %: 97.5451  MISS %: 2.45487  AVERAGE MISS PENALTY: 2.15398e+08
L1D RFO       ACCESS: 9367653  HIT: 8210842  MISS: 1156811  HIT %: 87.651  MISS %: 12.349  AVERAGE MISS PENALTY: 91258.8
L1D PREFETCH  ACCESS: 9610189  HIT: 7582014  MISS: 2028175  HIT %: 78.8956  MISS %: 21.1044  AVERAGE MISS PENALTY: 70.0767
L1D WRITEBACK ACCESS:     0  HIT:     0  MISS:     0  HIT %:     0  MISS %:     0  AVERAGE MISS PENALTY: 0

L1I TOTAL     ACCESS: 39373457  HIT: 39368981  MISS:  4476  HIT %: 99.9886  MISS %: 0.0113681  AVERAGE MISS PENALTY: 432.327
L1I LOAD      ACCESS: 39373457  HIT: 39368981  MISS:  4476  HIT %: 99.9886  MISS %: 0.0113681  AVERAGE MISS PENALTY: 432.327
L1I RFO       ACCESS:     0  HIT:     0  MISS:     0  HIT %:     0  MISS %:     0  AVERAGE MISS PENALTY: 0
L1I PREFETCH  ACCESS:     0  HIT:     0  MISS:     0  HIT %:     0  MISS %:     0  AVERAGE MISS PENALTY: 0
L1I WRITEBACK ACCESS:     0  HIT:     0  MISS:     0  HIT %:     0  MISS %:     0  AVERAGE MISS PENALTY: 0

L2C TOTAL     ACCESS: 7817773  HIT: 4344727  MISS: 3473046  HIT %: 55.575  MISS %: 44.425  AVERAGE MISS PENALTY: 2.08512e+07
L2C LOAD      ACCESS: 469881  HIT: 107723  MISS: 362158  HIT %: 22.9256  MISS %: 77.0744  AVERAGE MISS PENALTY: 1.99955e+08
L2C RFO       ACCESS: 1156422  HIT: 45936  MISS: 1110486  HIT %: 3.97225  MISS %: 96.0277  AVERAGE MISS PENALTY: 1510.3
L2C PREFETCH  ACCESS: 4603523  HIT: 2718974  MISS: 1884549  HIT %: 59.0629  MISS %: 40.9371  AVERAGE MISS PENALTY: 129.142
L2C WRITEBACK ACCESS: 1587947  HIT: 1472094  MISS: 115853  HIT %: 92.7042  MISS %: 7.29577  AVERAGE MISS PENALTY: 0


LLC0 TOTAL     ACCESS: 610096  HIT: 436267  MISS: 173829  HIT %: 71.5079  MISS %: 28.4921  AVERAGE MISS PENALTY: 454.814
LLC0 LOAD      ACCESS: 44756  HIT: 31850  MISS: 12906  HIT %: 71.1636  MISS %: 28.8364  AVERAGE MISS PENALTY: 465.805
LLC0 RFO       ACCESS: 138966  HIT: 62187  MISS: 76779  HIT %: 44.7498  MISS %: 55.2502  AVERAGE MISS PENALTY: 514.535
LLC0 PREFETCH  ACCESS: 235398  HIT: 168440  MISS: 66958  HIT %: 71.5554  MISS %: 28.4446  AVERAGE MISS PENALTY: 500.951
LLC0 WRITEBACK ACCESS: 190976  HIT: 173790  MISS: 17186  HIT %: 91.001  MISS %: 8.99904  AVERAGE MISS PENALTY: 0

LLC1 TOTAL     ACCESS: 609960  HIT: 437189  MISS: 172771  HIT %: 71.675  MISS %: 28.325  AVERAGE MISS PENALTY: 459.761
LLC1 LOAD      ACCESS: 22476  HIT: 15476  MISS:  7000  HIT %: 68.8557  MISS %: 31.1443  AVERAGE MISS PENALTY: 452.382
LLC1 RFO       ACCESS: 138853  HIT: 61805  MISS: 77048  HIT %: 44.5111  MISS %: 55.4889  AVERAGE MISS PENALTY: 513.863
LLC1 PREFETCH  ACCESS: 257871  HIT: 185217  MISS: 72654  HIT %: 71.8254  MISS %: 28.1746  AVERAGE MISS PENALTY: 504.783
LLC1 WRITEBACK ACCESS: 190760  HIT: 174691  MISS: 16069  HIT %: 91.5763  MISS %: 8.42367  AVERAGE MISS PENALTY: 0

LLC2 TOTAL     ACCESS: 610538  HIT: 437606  MISS: 172932  HIT %: 71.6755  MISS %: 28.3245  AVERAGE MISS PENALTY: 471.503
LLC2 LOAD      ACCESS: 15685  HIT: 10903  MISS:  4782  HIT %: 69.5123  MISS %: 30.4877  AVERAGE MISS PENALTY: 468.659
LLC2 RFO       ACCESS: 138986  HIT: 61143  MISS: 77843  HIT %: 43.9922  MISS %: 56.0078  AVERAGE MISS PENALTY: 520.193
LLC2 PREFETCH  ACCESS: 265017  HIT: 189892  MISS: 75125  HIT %: 71.6528  MISS %: 28.3472  AVERAGE MISS PENALTY: 516.519
LLC2 WRITEBACK ACCESS: 190850  HIT: 175668  MISS: 15182  HIT %: 92.0451  MISS %: 7.95494  AVERAGE MISS PENALTY: 0

LLC3 TOTAL     ACCESS: 610436  HIT: 437865  MISS: 172571  HIT %: 71.7299  MISS %: 28.2701  AVERAGE MISS PENALTY: 471.034
LLC3 LOAD      ACCESS: 14129  HIT:  9578  MISS:  4551  HIT %: 67.7897  MISS %: 32.2103  AVERAGE MISS PENALTY: 463.467
LLC3 RFO       ACCESS: 138731  HIT: 61098  MISS: 77633  HIT %: 44.0406  MISS %: 55.9594  AVERAGE MISS PENALTY: 519.286
LLC3 PREFETCH  ACCESS: 266708  HIT: 190989  MISS: 75719  HIT %: 71.6098  MISS %: 28.3902  AVERAGE MISS PENALTY: 513.264
LLC3 WRITEBACK ACCESS: 190868  HIT: 176200  MISS: 14668  HIT %: 92.3151  MISS %: 7.68489  AVERAGE MISS PENALTY: 0

LLC4 TOTAL     ACCESS: 610746  HIT: 438104  MISS: 172642  HIT %: 71.7326  MISS %: 28.2674  AVERAGE MISS PENALTY: 465.952
LLC4 LOAD      ACCESS: 12879  HIT:  9048  MISS:  3831  HIT %: 70.2539  MISS %: 29.7461  AVERAGE MISS PENALTY: 441.286
LLC4 RFO       ACCESS: 138792  HIT: 61248  MISS: 77544  HIT %: 44.1293  MISS %: 55.8707  AVERAGE MISS PENALTY: 516.954
LLC4 PREFETCH  ACCESS: 268177  HIT: 191589  MISS: 76588  HIT %: 71.4412  MISS %: 28.5588  AVERAGE MISS PENALTY: 504.854
LLC4 WRITEBACK ACCESS: 190898  HIT: 176219  MISS: 14679  HIT %: 92.3106  MISS %: 7.68945  AVERAGE MISS PENALTY: 0

LLC5 TOTAL     ACCESS: 610916  HIT: 437994  MISS: 172922  HIT %: 71.6946  MISS %: 28.3054  AVERAGE MISS PENALTY: 461.605
LLC5 LOAD      ACCESS: 13977  HIT:  9687  MISS:  4290  HIT %: 69.3067  MISS %: 30.6933  AVERAGE MISS PENALTY: 455.536
LLC5 RFO       ACCESS: 138688  HIT: 60865  MISS: 77823  HIT %: 43.8863  MISS %: 56.1137  AVERAGE MISS PENALTY: 510.797
LLC5 PREFETCH  ACCESS: 267264  HIT: 191273  MISS: 75991  HIT %: 71.5671  MISS %: 28.4329  AVERAGE MISS PENALTY: 501.582
LLC5 WRITEBACK ACCESS: 190987  HIT: 176169  MISS: 14818  HIT %: 92.2414  MISS %: 7.75864  AVERAGE MISS PENALTY: 0

LLC6 TOTAL     ACCESS: 611442  HIT: 437319  MISS: 174123  HIT %: 71.5226  MISS %: 28.4774  AVERAGE MISS PENALTY: 470.531
LLC6 LOAD      ACCESS: 12254  HIT:  8713  MISS:  3541  HIT %: 71.1033  MISS %: 28.8967  AVERAGE MISS PENALTY: 442.039
LLC6 RFO       ACCESS: 138824  HIT: 60569  MISS: 78255  HIT %: 43.6301  MISS %: 56.3699  AVERAGE MISS PENALTY: 520.13
LLC6 PREFETCH  ACCESS: 269167  HIT: 191862  MISS: 77305  HIT %: 71.2799  MISS %: 28.7201  AVERAGE MISS PENALTY: 513.063
LLC6 WRITEBACK ACCESS: 191197  HIT: 176175  MISS: 15022  HIT %: 92.1432  MISS %: 7.85682  AVERAGE MISS PENALTY: 0

LLC7 TOTAL     ACCESS: 610477  HIT: 436340  MISS: 174137  HIT %: 71.4753  MISS %: 28.5247  AVERAGE MISS PENALTY: 469.474
LLC7 LOAD      ACCESS: 13132  HIT:  8939  MISS:  4193  HIT %: 68.0704  MISS %: 31.9296  AVERAGE MISS PENALTY: 461.308
LLC7 RFO       ACCESS: 138641  HIT: 60709  MISS: 77932  HIT %: 43.7886  MISS %: 56.2114  AVERAGE MISS PENALTY: 517.257
LLC7 PREFETCH  ACCESS: 267810  HIT: 191256  MISS: 76554  HIT %: 71.4148  MISS %: 28.5852  AVERAGE MISS PENALTY: 516.075
LLC7 WRITEBACK ACCESS: 190894  HIT: 175436  MISS: 15458  HIT %: 91.9023  MISS %: 8.09769  AVERAGE MISS PENALTY: 0

Total Rob stall cycles : 	236398918
Total Load Rob Stall cycles : 	60547088
Average Rob Stall cycles : 	 6
Average Load Rob Stall cycles : 	 15

CPU 1 cumulative IPC: 0.635057 instructions: 205703416 cycles: 323913158
ITLB TOTAL     ACCESS: 30396424  HIT: 30396407  MISS:    17  HIT %: 99.9999  MISS %: 5.59276e-05  AVERAGE MISS PENALTY: 155.235
ITLB LOAD      ACCESS: 30396424  HIT: 30396407  MISS:    17  HIT %: 99.9999  MISS %: 5.59276e-05  AVERAGE MISS PENALTY: 155.235
ITLB RFO       ACCESS:     0  HIT:     0  MISS:     0  HIT %:     0  MISS %:     0  AVERAGE MISS PENALTY: 0
ITLB PREFETCH  ACCESS:     0  HIT:     0  MISS:     0  HIT %:     0  MISS %:     0  AVERAGE MISS PENALTY: 0
ITLB WRITEBACK ACCESS:     0  HIT:     0  MISS:     0  HIT %:     0  MISS %:     0  AVERAGE MISS PENALTY: 0

DTLB TOTAL     ACCESS: 34991853  HIT: 34925812  MISS: 66041  HIT %: 99.8113  MISS %: 0.188733  AVERAGE MISS PENALTY: 19.0812
DTLB LOAD      ACCESS: 23927040  HIT: 23882880  MISS: 44160  HIT %: 99.8154  MISS %: 0.184561  AVERAGE MISS PENALTY: 19.7012
DTLB RFO       ACCESS: 11064813  HIT: 11042932  MISS: 21881  HIT %: 99.8022  MISS %: 0.197753  AVERAGE MISS PENALTY: 17.8297
DTLB PREFETCH  ACCESS:     0  HIT:     0  MISS:     0  HIT %:     0  MISS %:     0  AVERAGE MISS PENALTY: 0
DTLB WRITEBACK ACCESS:     0  HIT:     0  MISS:     0  HIT %:     0  MISS %:     0  AVERAGE MISS PENALTY: 0

STLB TOTAL     ACCESS: 66058  HIT: 59545  MISS:  6513  HIT %: 90.1405  MISS %: 9.85952  AVERAGE MISS PENALTY: 100
STLB LOAD      ACCESS: 44177  HIT: 39591  MISS:  4586  HIT %: 89.619  MISS %: 10.381  AVERAGE MISS PENALTY: 100
STLB RFO       ACCESS: 21881  HIT: 19954  MISS:  1927  HIT %: 91.1933  MISS %: 8.80673  AVERAGE MISS PENALTY: 100
STLB PREFETCH  ACCESS:     0  HIT:     0  MISS:     0  HIT %:     0  MISS %:     0  AVERAGE MISS PENALTY: 0
STLB WRITEBACK ACCESS:     0  HIT:     0  MISS:     0  HIT %:     0  MISS %:     0  AVERAGE MISS PENALTY: 0

L1D TOTAL     ACCESS: 41639678  HIT: 37906062  MISS: 3733616  HIT %: 91.0335  MISS %: 8.96649  AVERAGE MISS PENALTY: 3.12415e+07
L1D LOAD      ACCESS: 22186471  HIT: 21651695  MISS: 534776  HIT %: 97.5896  MISS %: 2.41037  AVERAGE MISS PENALTY: 2.17922e+08
L1D RFO       ACCESS: 9702948  HIT: 8540755  MISS: 1162193  HIT %: 88.0223  MISS %: 11.9777  AVERAGE MISS PENALTY: 89694
L1D PREFETCH  ACCESS: 9750259  HIT: 7713612  MISS: 2036647  HIT %: 79.1119  MISS %: 20.8881  AVERAGE MISS PENALTY: 67.043
L1D WRITEBACK ACCESS:     0  HIT:     0  MISS:     0  HIT %:     0  MISS %:     0  AVERAGE MISS PENALTY: 0

L1I TOTAL     ACCESS: 40737056  HIT: 40732458  MISS:  4598  HIT %: 99.9887  MISS %: 0.011287  AVERAGE MISS PENALTY: 352.803
L1I LOAD      ACCESS: 40737056  HIT: 40732458  MISS:  4598  HIT %: 99.9887  MISS %: 0.011287  AVERAGE MISS PENALTY: 352.803
L1I RFO       ACCESS:     0  HIT:     0  MISS:     0  HIT %:     0  MISS %:     0  AVERAGE MISS PENALTY: 0
L1I PREFETCH  ACCESS:     0  HIT:     0  MISS:     0  HIT %:     0  MISS %:     0  AVERAGE MISS PENALTY: 0
L1I WRITEBACK ACCESS:     0  HIT:     0  MISS:     0  HIT %:     0  MISS %:     0  AVERAGE MISS PENALTY: 0

L2C TOTAL     ACCESS: 7836833  HIT: 4416729  MISS: 3420104  HIT %: 56.3586  MISS %: 43.6414  AVERAGE MISS PENALTY: 2.11112e+07
L2C LOAD      ACCESS: 468208  HIT: 102150  MISS: 366058  HIT %: 21.8172  MISS %: 78.1828  AVERAGE MISS PENALTY: 1.97231e+08
L2C RFO       ACCESS: 1161807  HIT: 45008  MISS: 1116799  HIT %: 3.87397  MISS %: 96.126  AVERAGE MISS PENALTY: 3751.55
L2C PREFETCH  ACCESS: 4611750  HIT: 2734015  MISS: 1877735  HIT %: 59.2837  MISS %: 40.7163  AVERAGE MISS PENALTY: 124.774
L2C WRITEBACK ACCESS: 1595068  HIT: 1535556  MISS: 59512  HIT %: 96.269  MISS %: 3.731  AVERAGE MISS PENALTY: 0


LLC0 TOTAL     ACCESS: 611278  HIT: 436222  MISS: 175056  HIT %: 71.3623  MISS %: 28.6377  AVERAGE MISS PENALTY: 415.64
LLC0 LOAD      ACCESS: 45039  HIT: 32207  MISS: 12832  HIT %: 71.5091  MISS %: 28.4909  AVERAGE MISS PENALTY: 442.711
LLC0 RFO       ACCESS: 139774  HIT: 63823  MISS: 75951  HIT %: 45.6616  MISS %: 54.3384  AVERAGE MISS PENALTY: 462.044
LLC0 PREFETCH  ACCESS: 234760  HIT: 167492  MISS: 67268  HIT %: 71.3461  MISS %: 28.6539  AVERAGE MISS PENALTY: 475.512
LLC0 WRITEBACK ACCESS: 191705  HIT: 172700  MISS: 19005  HIT %: 90.0863  MISS %: 9.91367  AVERAGE MISS PENALTY: 0

LLC1 TOTAL     ACCESS: 611120  HIT: 436351  MISS: 174769  HIT %: 71.4019  MISS %: 28.5981  AVERAGE MISS PENALTY: 420.548
LLC1 LOAD      ACCESS: 23121  HIT: 16033  MISS:  7088  HIT %: 69.3439  MISS %: 30.6561  AVERAGE MISS PENALTY: 421.859
LLC1 RFO       ACCESS: 139570  HIT: 63089  MISS: 76481  HIT %: 45.2024  MISS %: 54.7976  AVERAGE MISS PENALTY: 466.481
LLC1 PREFETCH  ACCESS: 256942  HIT: 183627  MISS: 73315  HIT %: 71.4663  MISS %: 28.5337  AVERAGE MISS PENALTY: 475.096
LLC1 WRITEBACK ACCESS: 191487  HIT: 173602  MISS: 17885  HIT %: 90.6599  MISS %: 9.34006  AVERAGE MISS PENALTY: 0

LLC2 TOTAL     ACCESS: 611887  HIT: 437196  MISS: 174691  HIT %: 71.4504  MISS %: 28.5496  AVERAGE MISS PENALTY: 427.619
LLC2 LOAD      ACCESS: 16038  HIT: 11193  MISS:  4845  HIT %: 69.7905  MISS %: 30.2095  AVERAGE MISS PENALTY: 451.878
LLC2 RFO       ACCESS: 139787  HIT: 62754  MISS: 77033  HIT %: 44.8926  MISS %: 55.1074  AVERAGE MISS PENALTY: 466.81
LLC2 PREFETCH  ACCESS: 264465  HIT: 188751  MISS: 75714  HIT %: 71.3709  MISS %: 28.6291  AVERAGE MISS PENALTY: 482.766
LLC2 WRITEBACK ACCESS: 191597  HIT: 174498  MISS: 17099  HIT %: 91.0755  MISS %: 8.92446  AVERAGE MISS PENALTY: 0

LLC3 TOTAL     ACCESS: 611571  HIT: 437866  MISS: 173705  HIT %: 71.5969  MISS %: 28.4031  AVERAGE MISS PENALTY: 427.388
LLC3 LOAD      ACCESS: 14265  HIT:  9753  MISS:  4512  HIT %: 68.3701  MISS %: 31.6299  AVERAGE MISS PENALTY: 435.622
LLC3 RFO       ACCESS: 139527  HIT: 62951  MISS: 76576  HIT %: 45.1174  MISS %: 54.8826  AVERAGE MISS PENALTY: 468.45
[...]
LLC1 AVERAGE MISS LATENCY: 435.538 cycles
LLC2 TOTAL     ACCESS: 613278  HIT: 440441  MISS: 172837  HIT %: 71.8175  MISS %: 28.1825  AVERAGE MISS PENALTY: 444.688
LLC2 LOAD      ACCESS: 15841  HIT: 10917  MISS:  4924  HIT %: 68.9161  MISS %: 31.0839  AVERAGE MISS PENALTY: 446.989
LLC2 RFO       ACCESS: 139230  HIT: 63884  MISS: 75346  HIT %: 45.8838  MISS %: 54.1162  AVERAGE MISS PENALTY: 489.432
LLC2 PREFETCH  ACCESS: 267074  HIT: 190794  MISS: 76280  HIT %: 71.4386  MISS %: 28.5614  AVERAGE MISS PENALTY: 495.293
LLC2 WRITEBACK ACCESS: 191133  HIT: 174846  MISS: 16287  HIT %: 91.4787  MISS %: 8.52129  AVERAGE MISS PENALTY: 0
LLC2 PREFETCH  REQUESTED:     0  ISSUED:     0  USEFUL: 105350  USELESS: 498267
 USEFUL LOAD PREFETCHES:     105350 PREFETCH ISSUED TO LOWER LEVEL:     657030  ACCURACY: 16.0343
 TIMELY PREFETCHES:     105350 LATE PREFETCHES: 0 DROPPED PREFETCHES: 0
LLC2 AVERAGE MISS LATENCY: 444.688 cycles
LLC3 TOTAL     ACCESS: 612961  HIT: 440956  MISS: 172005  HIT %: 71.9387  MISS %: 28.0613  AVERAGE MISS PENALTY: 444.726
LLC3 LOAD      ACCESS: 13932  HIT:  9466  MISS:  4466  HIT %: 67.9443  MISS %: 32.0557  AVERAGE MISS PENALTY: 449.039
LLC3 RFO       ACCESS: 138954  HIT: 63653  MISS: 75301  HIT %: 45.8087  MISS %: 54.1913  AVERAGE MISS PENALTY: 491.286
LLC3 PREFETCH  ACCESS: 268971  HIT: 192406  MISS: 76565  HIT %: 71.5341  MISS %: 28.4659  AVERAGE MISS PENALTY: 489.718
LLC3 WRITEBACK ACCESS: 191104  HIT: 175431  MISS: 15673  HIT %: 91.7987  MISS %: 8.20129  AVERAGE MISS PENALTY: 0
LLC3 PREFETCH  REQUESTED:     0  ISSUED:     0  USEFUL: 105253  USELESS: 500856
 USEFUL LOAD PREFETCHES:     105253 PREFETCH ISSUED TO LOWER LEVEL:     628600  ACCURACY: 16.744
 TIMELY PREFETCHES:     105253 LATE PREFETCHES: 0 DROPPED PREFETCHES: 0
LLC3 AVERAGE MISS LATENCY: 444.726 cycles
LLC4 TOTAL     ACCESS: 613218  HIT: 440968  MISS: 172250  HIT %: 71.9105  MISS %: 28.0895  AVERAGE MISS PENALTY: 441.683
LLC4 LOAD      ACCESS: 12608  HIT:  8834  MISS:  3774  HIT %: 70.0666  MISS %: 29.9334  AVERAGE MISS PENALTY: 456.542
LLC4 RFO       ACCESS: 139060  HIT: 63595  MISS: 75465  HIT %: 45.7321  MISS %: 54.2679  AVERAGE MISS PENALTY: 489.701
LLC4 PREFETCH  ACCESS: 270329  HIT: 193030  MISS: 77299  HIT %: 71.4056  MISS %: 28.5944  AVERAGE MISS PENALTY: 483.856
LLC4 WRITEBACK ACCESS: 191221  HIT: 175509  MISS: 15712  HIT %: 91.7833  MISS %: 8.21667  AVERAGE MISS PENALTY: 0
LLC4 PREFETCH  REQUESTED:     0  ISSUED:     0  USEFUL: 106242  USELESS: 505800
 USEFUL LOAD PREFETCHES:     106242 PREFETCH ISSUED TO LOWER LEVEL:     681015  ACCURACY: 15.6005
 TIMELY PREFETCHES:     106242 LATE PREFETCHES: 0 DROPPED PREFETCHES: 0
LLC4 AVERAGE MISS LATENCY: 441.683 cycles
LLC5 TOTAL     ACCESS: 612905  HIT: 440767  MISS: 172138  HIT %: 71.9144  MISS %: 28.0856  AVERAGE MISS PENALTY: 439.484
LLC5 LOAD      ACCESS: 13410  HIT:  9127  MISS:  4283  HIT %: 68.0611  MISS %: 31.9389  AVERAGE MISS PENALTY: 450.374
LLC5 RFO       ACCESS: 139009  HIT: 63516  MISS: 75493  HIT %: 45.692  MISS %: 54.308  AVERAGE MISS PENALTY: 488.235
LLC5 PREFETCH  ACCESS: 269398  HIT: 192657  MISS: 76741  HIT %: 71.5139  MISS %: 28.4861  AVERAGE MISS PENALTY: 480.376
LLC5 WRITEBACK ACCESS: 191088  HIT: 175467  MISS: 15621  HIT %: 91.8252  MISS %: 8.17477  AVERAGE MISS PENALTY: 0
LLC5 PREFETCH  REQUESTED:     0  ISSUED:     0  USEFUL: 105403  USELESS: 503164
 USEFUL LOAD PREFETCHES:     105403 PREFETCH ISSUED TO LOWER LEVEL:     616001  ACCURACY: 17.1108
 TIMELY PREFETCHES:     105403 LATE PREFETCHES: 0 DROPPED PREFETCHES: 0
LLC5 AVERAGE MISS LATENCY: 439.484 cycles
LLC6 TOTAL     ACCESS: 613654  HIT: 439962  MISS: 173692  HIT %: 71.6955  MISS %: 28.3045  AVERAGE MISS PENALTY: 446
LLC6 LOAD      ACCESS: 12159  HIT:  8561  MISS:  3598  HIT %: 70.4088  MISS %: 29.5912  AVERAGE MISS PENALTY: 457.791
LLC6 RFO       ACCESS: 139120  HIT: 63179  MISS: 75941  HIT %: 45.4133  MISS %: 54.5867  AVERAGE MISS PENALTY: 492.266
LLC6 PREFETCH  ACCESS: 271209  HIT: 193038  MISS: 78171  HIT %: 71.1768  MISS %: 28.8232  AVERAGE MISS PENALTY: 491.695
LLC6 WRITEBACK ACCESS: 191166  HIT: 175184  MISS: 15982  HIT %: 91.6397  MISS %: 8.36027  AVERAGE MISS PENALTY: 0
LLC6 PREFETCH  REQUESTED:     0  ISSUED:     0  USEFUL: 106440  USELESS: 511831
 USEFUL LOAD PREFETCHES:     106440 PREFETCH ISSUED TO LOWER LEVEL:     861003  ACCURACY: 12.3623
 TIMELY PREFETCHES:     106440 LATE PREFETCHES: 0 DROPPED PREFETCHES: 0
LLC6 AVERAGE MISS LATENCY: 446 cycles
LLC7 TOTAL     ACCESS: 612748  HIT: 439402  MISS: 173346  HIT %: 71.7101  MISS %: 28.2899  AVERAGE MISS PENALTY: 443.96
LLC7 LOAD      ACCESS: 12994  HIT:  8817  MISS:  4177  HIT %: 67.8544  MISS %: 32.1456  AVERAGE MISS PENALTY: 447.814
LLC7 RFO       ACCESS: 138870  HIT: 63163  MISS: 75707  HIT %: 45.4835  MISS %: 54.5165  AVERAGE MISS PENALTY: 491.139
LLC7 PREFETCH  ACCESS: 269912  HIT: 192695  MISS: 77217  HIT %: 71.3918  MISS %: 28.6082  AVERAGE MISS PENALTY: 490.896
LLC7 WRITEBACK ACCESS: 190972  HIT: 174727  MISS: 16245  HIT %: 91.4935  MISS %: 8.50648  AVERAGE MISS PENALTY: 0
LLC7 PREFETCH  REQUESTED:     0  ISSUED:     0  USEFUL: 105601  USELESS: 506318
 USEFUL LOAD PREFETCHES:     105601 PREFETCH ISSUED TO LOWER LEVEL:     630158  ACCURACY: 16.7579
 TIMELY PREFETCHES:     105601 LATE PREFETCHES: 0 DROPPED PREFETCHES: 0
LLC7 AVERAGE MISS LATENCY: 443.96 cycles
ROI Average ROB Stall Cycles:	6.02405
ROI Total ROB Stalls Cycles:	233041071
ROI TOTAL ROB counter      :	38685135
ROI Average Load ROB Stall Cycles:	15.9206
ROI Total Load ROB Stalls Cycle  :	59512514
ROI Total Load ROB stalls Counter:	3738080
Major fault: 0 Minor fault: 9056

CPU 7 cumulative IPC: 0.618473 instructions: 200000000 cycles: 323376872
ITLB TOTAL     ACCESS: 28563680  HIT: 28563672  MISS:     8  HIT %:   100  MISS %: 2.80076e-05  AVERAGE MISS PENALTY: 182.5
ITLB LOAD      ACCESS: 28563680  HIT: 28563672  MISS:     8  HIT %:   100  MISS %: 2.80076e-05  AVERAGE MISS PENALTY: 182.5
ITLB RFO       ACCESS:     0  HIT:     0  MISS:     0  HIT %:     0  MISS %:     0  AVERAGE MISS PENALTY: 0
ITLB PREFETCH  ACCESS:     0  HIT:     0  MISS:     0  HIT %:     0  MISS %:     0  AVERAGE MISS PENALTY: 0
ITLB WRITEBACK ACCESS:     0  HIT:     0  MISS:     0  HIT %:     0  MISS %:     0  AVERAGE MISS PENALTY: 0
ITLB PREFETCH  REQUESTED:     0  ISSUED:     0  USEFUL:     0  USELESS:     0
 USEFUL LOAD PREFETCHES:          0 PREFETCH ISSUED TO LOWER LEVEL:          0  ACCURACY: -nan
 TIMELY PREFETCHES:          0 LATE PREFETCHES: 0 DROPPED PREFETCHES: 0
ITLB AVERAGE MISS LATENCY: 182.5 cycles
DTLB TOTAL     ACCESS: 34007624  HIT: 33943077  MISS: 64547  HIT %: 99.8102  MISS %: 0.189802  AVERAGE MISS PENALTY: 19.031
DTLB LOAD      ACCESS: 23237455  HIT: 23194218  MISS: 43237  HIT %: 99.8139  MISS %: 0.186066  AVERAGE MISS PENALTY: 19.7724
DTLB RFO       ACCESS: 10770169  HIT: 10748859  MISS: 21310  HIT %: 99.8021  MISS %: 0.197861  AVERAGE MISS PENALTY: 17.5267
DTLB PREFETCH  ACCESS:     0  HIT:     0  MISS:     0  HIT %:     0  MISS %:     0  AVERAGE MISS PENALTY: 0
DTLB WRITEBACK ACCESS:     0  HIT:     0  MISS:     0  HIT %:     0  MISS %:     0  AVERAGE MISS PENALTY: 0
DTLB PREFETCH  REQUESTED:     0  ISSUED:     0  USEFUL:     0  USELESS:     0
 USEFUL LOAD PREFETCHES:          0 PREFETCH ISSUED TO LOWER LEVEL:          0  ACCURACY: -nan
 TIMELY PREFETCHES:          0 LATE PREFETCHES: 0 DROPPED PREFETCHES: 0
DTLB AVERAGE MISS LATENCY: 19.031 cycles
STLB TOTAL     ACCESS: 64555  HIT: 58206  MISS:  6349  HIT %: 90.165  MISS %: 9.83502  AVERAGE MISS PENALTY: 100
STLB LOAD      ACCESS: 43245  HIT: 38710  MISS:  4535  HIT %: 89.5132  MISS %: 10.4868  AVERAGE MISS PENALTY: 100
STLB RFO       ACCESS: 21310  HIT: 19496  MISS:  1814  HIT %: 91.4876  MISS %: 8.51244  AVERAGE MISS PENALTY: 100
STLB PREFETCH  ACCESS:     0  HIT:     0  MISS:     0  HIT %:     0  MISS %:     0  AVERAGE MISS PENALTY: 0
STLB WRITEBACK ACCESS:     0  HIT:     0  MISS:     0  HIT %:     0  MISS %:     0  AVERAGE MISS PENALTY: 0
STLB PREFETCH  REQUESTED:     0  ISSUED:     0  USEFUL:     0  USELESS:     0
 USEFUL LOAD PREFETCHES:          0 PREFETCH ISSUED TO LOWER LEVEL:          0  ACCURACY: -nan
 TIMELY PREFETCHES:          0 LATE PREFETCHES: 0 DROPPED PREFETCHES: 0
STLB AVERAGE MISS LATENCY: 100 cycles
L1D TOTAL     ACCESS: 40326315  HIT: 36616781  MISS: 3709534  HIT %: 90.8012  MISS %: 9.19879  AVERAGE MISS PENALTY: 3.09194e+07
L1D LOAD      ACCESS: 21540087  HIT: 21010986  MISS: 529101  HIT %: 97.5436  MISS %: 2.45635  AVERAGE MISS PENALTY: 2.16567e+08
L1D RFO       ACCESS: 9235999  HIT: 8082867  MISS: 1153132  HIT %: 87.5148  MISS %: 12.4852  AVERAGE MISS PENALTY: 95784.9
L1D PREFETCH  ACCESS: 9550229  HIT: 7522928  MISS: 2027301  HIT %: 78.7722  MISS %: 21.2278  AVERAGE MISS PENALTY: 71.3289
L1D WRITEBACK ACCESS:     0  HIT:     0  MISS:     0  HIT %:     0  MISS %:     0  AVERAGE MISS PENALTY: 0
L1D PREFETCH  REQUESTED: 11978642  ISSUED: 11835155  USEFUL: 1973565  USELESS: 53763
 USEFUL LOAD PREFETCHES:    1973565 PREFETCH ISSUED TO LOWER LEVEL:    7416336  ACCURACY: 26.6111
 TIMELY PREFETCHES:    1973565 LATE PREFETCHES: 556316 DROPPED PREFETCHES: 143487
L1D AVERAGE MISS LATENCY: 29843.6 cycles
L1I TOTAL     ACCESS: 38633662  HIT: 38629186  MISS:  4476  HIT %: 99.9884  MISS %: 0.0115858  AVERAGE MISS PENALTY: 460.453
L1I LOAD      ACCESS: 38633662  HIT: 38629186  MISS:  4476  HIT %: 99.9884  MISS %: 0.0115858  AVERAGE MISS PENALTY: 460.453
L1I RFO       ACCESS:     0  HIT:     0  MISS:     0  HIT %:     0  MISS %:     0  AVERAGE MISS PENALTY: 0
L1I PREFETCH  ACCESS:     0  HIT:     0  MISS:     0  HIT %:     0  MISS %:     0  AVERAGE MISS PENALTY: 0
L1I WRITEBACK ACCESS:     0  HIT:     0  MISS:     0  HIT %:     0  MISS %:     0  AVERAGE MISS PENALTY: 0
L1I PREFETCH  REQUESTED:     0  ISSUED:     0  USEFUL:     0  USELESS:     0
 USEFUL LOAD PREFETCHES:          0 PREFETCH ISSUED TO LOWER LEVEL:          0  ACCURACY: -nan
 TIMELY PREFETCHES:          0 LATE PREFETCHES: 0 DROPPED PREFETCHES: 0
L1I AVERAGE MISS LATENCY: 460.453 cycles
L2C TOTAL     ACCESS: 7800096  HIT: 4321893  MISS: 3478203  HIT %: 55.4082  MISS %: 44.5918  AVERAGE MISS PENALTY: 2.07342e+07
L2C LOAD      ACCESS: 464322  HIT: 102203  MISS: 362119  HIT %: 22.0112  MISS %: 77.9888  AVERAGE MISS PENALTY: 1.99143e+08
L2C RFO       ACCESS: 1152727  HIT: 40022  MISS: 1112705  HIT %: 3.47194  MISS %: 96.5281  AVERAGE MISS PENALTY: 3548.48
L2C PREFETCH  ACCESS: 4599884  HIT: 2692562  MISS: 1907322  HIT %: 58.5354  MISS %: 41.4646  AVERAGE MISS PENALTY: 130.341
L2C WRITEBACK ACCESS: 1583163  HIT: 1487106  MISS: 96057  HIT %: 93.9326  MISS %: 6.06741  AVERAGE MISS PENALTY: 0
L2C PREFETCH  REQUESTED: 4341297  ISSUED: 4340868  USEFUL: 83386  USELESS: 1828139
 USEFUL LOAD PREFETCHES:      83386 PREFETCH ISSUED TO LOWER LEVEL:    2834409  ACCURACY: 2.94192
 TIMELY PREFETCHES:      83386 LATE PREFETCHES: 339138 DROPPED PREFETCHES: 429
L2C AVERAGE MISS LATENCY: 201.53 cycles
LLC0 TOTAL     ACCESS: 613541  HIT: 439735  MISS: 173806  HIT %: 71.6717  MISS %: 28.3283  AVERAGE MISS PENALTY: 454.521
LLC0 LOAD      ACCESS: 45173  HIT: 32118  MISS: 13055  HIT %:  71.1  MISS %:  28.9  AVERAGE MISS PENALTY: 470.459
LLC0 RFO       ACCESS: 139198  HIT: 63291  MISS: 75907  HIT %: 45.4683  MISS %: 54.5317  AVERAGE MISS PENALTY: 501.051
LLC0 PREFETCH  ACCESS: 238034  HIT: 170778  MISS: 67256  HIT %: 71.7452  MISS %: 28.2548  AVERAGE MISS PENALTY: 517.774
LLC0 WRITEBACK ACCESS: 191136  HIT: 173548  MISS: 17588  HIT %: 90.7982  MISS %: 9.20182  AVERAGE MISS PENALTY: 0
LLC0 PREFETCH  REQUESTED:     0  ISSUED:     0  USEFUL: 94180  USELESS: 442429
 USEFUL LOAD PREFETCHES:      94180 PREFETCH ISSUED TO LOWER LEVEL:     573883  ACCURACY: 16.411
 TIMELY PREFETCHES:      94180 LATE PREFETCHES: 0 DROPPED PREFETCHES: 0
LLC0 AVERAGE MISS LATENCY: 454.521 cycles
Deadblocks : 60428 Deadblock percentage : 462.872

LLC1 TOTAL     ACCESS: 613576  HIT: 441032  MISS: 172544  HIT %: 71.879  MISS %: 28.121  AVERAGE MISS PENALTY: 460.754
LLC1 LOAD      ACCESS: 23229  HIT: 16241  MISS:  6988  HIT %: 69.9169  MISS %: 30.0831  AVERAGE MISS PENALTY: 483.328
LLC1 RFO       ACCESS: 139050  HIT: 62848  MISS: 76202  HIT %: 45.1981  MISS %: 54.8019  AVERAGE MISS PENALTY: 501.204
LLC1 PREFETCH  ACCESS: 260281  HIT: 187226  MISS: 73055  HIT %: 71.9323  MISS %: 28.0677  AVERAGE MISS PENALTY: 519.2
LLC1 WRITEBACK ACCESS: 191016  HIT: 174717  MISS: 16299  HIT %: 91.4672  MISS %: 8.53279  AVERAGE MISS PENALTY: 0
LLC1 PREFETCH  REQUESTED:     0  ISSUED:     0  USEFUL: 105452  USELESS: 478178
 USEFUL LOAD PREFETCHES:     105452 PREFETCH ISSUED TO LOWER LEVEL:     592765  ACCURACY: 17.7898
 TIMELY PREFETCHES:     105452 LATE PREFETCHES: 0 DROPPED PREFETCHES: 0
LLC1 AVERAGE MISS LATENCY: 460.754 cycles
LLC2 TOTAL     ACCESS: 614081  HIT: 441735  MISS: 172346  HIT %: 71.9343  MISS %: 28.0657  AVERAGE MISS PENALTY: 471.247
LLC2 LOAD      ACCESS: 15777  HIT: 10948  MISS:  4829  HIT %: 69.3922  MISS %: 30.6078  AVERAGE MISS PENALTY: 477.635
LLC2 RFO       ACCESS: 139251  HIT: 62373  MISS: 76878  HIT %: 44.7918  MISS %: 55.2082  AVERAGE MISS PENALTY: 505.074
LLC2 PREFETCH  ACCESS: 267958  HIT: 192739  MISS: 75219  HIT %: 71.9288  MISS %: 28.0712  AVERAGE MISS PENALTY: 532.87
LLC2 WRITEBACK ACCESS: 191095  HIT: 175675  MISS: 15420  HIT %: 91.9307  MISS %: 8.06928  AVERAGE MISS PENALTY: 0
LLC2 PREFETCH  REQUESTED:     0  ISSUED:     0  USEFUL: 105350  USELESS: 498267
 USEFUL LOAD PREFETCHES:     105350 PREFETCH ISSUED TO LOWER LEVEL:     657030  ACCURACY: 16.0343
 TIMELY PREFETCHES:     105350 LATE PREFETCHES: 0 DROPPED PREFETCHES: 0
LLC2 AVERAGE MISS LATENCY: 471.247 cycles
LLC3 TOTAL     ACCESS: 613813  HIT: 441799  MISS: 172014  HIT %: 71.9762  MISS %: 28.0238  AVERAGE MISS PENALTY: 471.85
LLC3 LOAD      ACCESS: 14317  HIT:  9696  MISS:  4621  HIT %: 67.7237  MISS %: 32.2763  AVERAGE MISS PENALTY: 482.269
LLC3 RFO       ACCESS: 139028  HIT: 62409  MISS: 76619  HIT %: 44.8895  MISS %: 55.1105  AVERAGE MISS PENALTY: 506.65
LLC3 PREFETCH  ACCESS: 269310  HIT: 193412  MISS: 75898  HIT %: 71.8176  MISS %: 28.1824  AVERAGE MISS PENALTY: 528.568
LLC3 WRITEBACK ACCESS: 191158  HIT: 176282  MISS: 14876  HIT %: 92.218  MISS %: 7.78204  AVERAGE MISS PENALTY: 0
LLC3 PREFETCH  REQUESTED:     0  ISSUED:     0  USEFUL: 105253  USELESS: 500856
 USEFUL LOAD PREFETCHES:     105253 PREFETCH ISSUED TO LOWER LEVEL:     628600  ACCURACY: 16.744
 TIMELY PREFETCHES:     105253 LATE PREFETCHES: 0 DROPPED PREFETCHES: 0
LLC3 AVERAGE MISS LATENCY: 471.85 cycles
LLC4 TOTAL     ACCESS: 613993  HIT: 442073  MISS: 171920  HIT %: 71.9997  MISS %: 28.0003  AVERAGE MISS PENALTY: 463.863
LLC4 LOAD      ACCESS: 12704  HIT:  8935  MISS:  3769  HIT %: 70.3322  MISS %: 29.6678  AVERAGE MISS PENALTY: 455.331
LLC4 RFO       ACCESS: 139064  HIT: 62254  MISS: 76810  HIT %: 44.7664  MISS %: 55.2336  AVERAGE MISS PENALTY: 503.433
LLC4 PREFETCH  ACCESS: 271016  HIT: 194586  MISS: 76430  HIT %: 71.7987  MISS %: 28.2013  AVERAGE MISS PENALTY: 515.014
LLC4 WRITEBACK ACCESS: 191209  HIT: 176298  MISS: 14911  HIT %: 92.2017  MISS %: 7.79827  AVERAGE MISS PENALTY: 0
LLC4 PREFETCH  REQUESTED:     0  ISSUED:     0  USEFUL: 106242  USELESS: 505800
 USEFUL LOAD PREFETCHES:     106242 PREFETCH ISSUED TO LOWER LEVEL:     681015  ACCURACY: 15.6005
 TIMELY PREFETCHES:     106242 LATE PREFETCHES: 0 DROPPED PREFETCHES: 0
LLC4 AVERAGE MISS LATENCY: 463.863 cycles
LLC5 TOTAL     ACCESS: 613644  HIT: 441302  MISS: 172342  HIT %: 71.915  MISS %: 28.085  AVERAGE MISS PENALTY: 463.889
LLC5 LOAD      ACCESS: 13512  HIT:  9245  MISS:  4267  HIT %: 68.4207  MISS %: 31.5793  AVERAGE MISS PENALTY: 466.541
LLC5 RFO       ACCESS: 139013  HIT: 62041  MISS: 76972  HIT %: 44.6296  MISS %: 55.3704  AVERAGE MISS PENALTY: 503.563
LLC5 PREFETCH  ACCESS: 270078  HIT: 194052  MISS: 76026  HIT %: 71.8504  MISS %: 28.1496  AVERAGE MISS PENALTY: 515.567
LLC5 WRITEBACK ACCESS: 191041  HIT: 175964  MISS: 15077  HIT %: 92.108  MISS %: 7.89202  AVERAGE MISS PENALTY: 0
LLC5 PREFETCH  REQUESTED:     0  ISSUED:     0  USEFUL: 105403  USELESS: 503164
 USEFUL LOAD PREFETCHES:     105403 PREFETCH ISSUED TO LOWER LEVEL:     616001  ACCURACY: 17.1108
 TIMELY PREFETCHES:     105403 LATE PREFETCHES: 0 DROPPED PREFETCHES: 0
LLC5 AVERAGE MISS LATENCY: 463.889 cycles
LLC6 TOTAL     ACCESS: 614456  HIT: 440777  MISS: 173679  HIT %: 71.7345  MISS %: 28.2655  AVERAGE MISS PENALTY: 471.771
LLC6 LOAD      ACCESS: 12309  HIT:  8699  MISS:  3610  HIT %: 70.6719  MISS %: 29.3281  AVERAGE MISS PENALTY: 478.624
LLC6 RFO       ACCESS: 139181  HIT: 61715  MISS: 77466  HIT %: 44.3415  MISS %: 55.6585  AVERAGE MISS PENALTY: 508.282
LLC6 PREFETCH  ACCESS: 271849  HIT: 194511  MISS: 77338  HIT %: 71.5511  MISS %: 28.4489  AVERAGE MISS PENALTY: 527.998
LLC6 WRITEBACK ACCESS: 191117  HIT: 175852  MISS: 15265  HIT %: 92.0127  MISS %: 7.98725  AVERAGE MISS PENALTY: 0
LLC6 PREFETCH  REQUESTED:     0  ISSUED:     0  USEFUL: 106440  USELESS: 511831
 USEFUL LOAD PREFETCHES:     106440 PREFETCH ISSUED TO LOWER LEVEL:     861003  ACCURACY: 12.3623
 TIMELY PREFETCHES:     106440 LATE PREFETCHES: 0 DROPPED PREFETCHES: 0
LLC6 AVERAGE MISS LATENCY: 471.771 cycles
LLC7 TOTAL     ACCESS: 613727  HIT: 439701  MISS: 174026  HIT %: 71.6444  MISS %: 28.3556  AVERAGE MISS PENALTY: 472.158
LLC7 LOAD      ACCESS: 13297  HIT:  9138  MISS:  4159  HIT %: 68.7223  MISS %: 31.2777  AVERAGE MISS PENALTY: 482.18
LLC7 RFO       ACCESS: 138914  HIT: 61547  MISS: 77367  HIT %: 44.3058  MISS %: 55.6942  AVERAGE MISS PENALTY: 509.067
LLC7 PREFETCH  ACCESS: 270536  HIT: 193713  MISS: 76823  HIT %: 71.6034  MISS %: 28.3966  AVERAGE MISS PENALTY: 530.796
LLC7 WRITEBACK ACCESS: 190980  HIT: 175303  MISS: 15677  HIT %: 91.7913  MISS %: 8.20871  AVERAGE MISS PENALTY: 0
LLC7 PREFETCH  REQUESTED:     0  ISSUED:     0  USEFUL: 105601  USELESS: 506318
 USEFUL LOAD PREFETCHES:     105601 PREFETCH ISSUED TO LOWER LEVEL:     630158  ACCURACY: 16.7579
 TIMELY PREFETCHES:     105601 LATE PREFETCHES: 0 DROPPED PREFETCHES: 0
LLC7 AVERAGE MISS LATENCY: 472.158 cycles
ROI Average ROB Stall Cycles:	6.10654
ROI Total ROB Stalls Cycles:	236154881
ROI TOTAL ROB counter      :	38672481
ROI Average Load ROB Stall Cycles:	16.5158
ROI Total Load ROB Stalls Cycle  :	61676561
ROI Total Load ROB stalls Counter:	3734402
Major fault: 0 Minor fault: 9002








Interconnect Stats 
LINK 0 BW : 0LINK 1 BW : 0LINK 2 BW : 0LINK 3 BW : 0LINK 4 BW : 0LINK 5 BW : 0LINK 6 BW : 0LINK 7 BW : 0
DRAM Statistics
 CHANNEL 0
 RQ ROW_BUFFER_HIT: 1357065  ROW_BUFFER_MISS: 3665141
 DBUS_CONGESTED: 8892563
 WQ ROW_BUFFER_HIT: 537210  ROW_BUFFER_MISS: 2927995  FULL:     0

 CHANNEL 1
 RQ ROW_BUFFER_HIT: 1352242  ROW_BUFFER_MISS: 3671747
 DBUS_CONGESTED: 8892563
 WQ ROW_BUFFER_HIT: 535476  ROW_BUFFER_MISS: 2928769  FULL:     0

 AVG_CONGESTED_CYCLE: 6
DRAM PAGES: 2097152
Allocated PAGES: 72271
L2C destructor called
L1D destructor called
L1I destructor called
STLB destructor called
DTLB destructor called
ITLB destructor called
L2C destructor called
L1D destructor called
L1I destructor called
STLB destructor called
DTLB destructor called
ITLB destructor called
L2C destructor called
L1D destructor called
L1I destructor called
STLB destructor called
DTLB destructor called
ITLB destructor called
L2C destructor called
L1D destructor called
L1I destructor called
STLB destructor called
DTLB destructor called
ITLB destructor called
L2C destructor called
L1D destructor called
L1I destructor called
STLB destructor called
DTLB destructor called
ITLB destructor called
L2C destructor called
L1D destructor called
L1I destructor called
STLB destructor called
DTLB destructor called
ITLB destructor called
L2C destructor called
L1D destructor called
L1I destructor called
STLB destructor called
DTLB destructor called
ITLB destructor called
L2C destructor called
L1D destructor called
L1I destructor called
STLB destructor called
DTLB destructor called
ITLB destructor called
