
*** ChampSim Multicore Out-of-Order Simulator ***

Warmup Instructions: 200000000
Simulation Instructions: 200000000
Number of CPUs: 8
threads:1

L1I Configuration:
L1I_SET:64
L1I_WAY:8
L1I_RQ_SIZE:64
L1I_WQ_SIZE:64
L1I_PQ_SIZE:8
L1I_MSHR_SIZE:8

L1D Configuration:
L1D_SET:64
L1D_WAY:12
L1D_RQ_SIZE:64
L1D_WQ_SIZE:64
L1D_PQ_SIZE:8
L1D_MSHR_SIZE:16

L2C Configuration:
L2C_SET:1024
L2C_WAY:8
L2C_RQ_SIZE:32
L2C_WQ_SIZE:32
L2C_PQ_SIZE:16
L2C_MSHR_SIZE:32

LLC Configuration:
LLC_SET:2048
LLC_WAY:16
LLC SLICES:8
LLC_RQ_SIZE:64
LLC_WQ_SIZE:64
LLC_PQ_SIZE:32
LLC_MSHR_SIZE:64

Interconnect OFF
Attacker deprioritize is: OFF
Off-chip DRAM Size: 8192 MB Channels: 2 Width: 64-bit Data Rate: 3200 MT/s
PAGE SIZE in KB: 4.000000 
PAGE SIZE in MB: 0.003906 
PAGE offset in bits: 12 
CEASER-S_LLC:0
MIRAGE : 0
CEASER_LATENCY:3
REMAP : OFF
Partitions : 1
Multi-Step : OFF
BFS : OFF

CPU 0 runs /home/anubhav/spec_2017/628.pop2_s-17B.champsimtrace.xz
CPU 1 runs /home/anubhav/spec_2017/628.pop2_s-17B.champsimtrace.xz
CPU 2 runs /home/anubhav/spec_2017/628.pop2_s-17B.champsimtrace.xz
CPU 3 runs /home/anubhav/spec_2017/628.pop2_s-17B.champsimtrace.xz
CPU 4 runs /home/anubhav/spec_2017/628.pop2_s-17B.champsimtrace.xz
CPU 5 runs /home/anubhav/spec_2017/628.pop2_s-17B.champsimtrace.xz
CPU 6 runs /home/anubhav/spec_2017/628.pop2_s-17B.champsimtrace.xz
CPU 7 runs /home/anubhav/spec_2017/628.pop2_s-17B.champsimtrace.xz
CPU 0 Bimodal branch predictor
Initialize Hawkeye state
Initialize Hawkeye state
Initialize Hawkeye state
Initialize Hawkeye state
Initialize Hawkeye state
Initialize Hawkeye state
Initialize Hawkeye state
Initialize Hawkeye state
CPU 1 Bimodal branch predictor
Initialize Hawkeye state
Initialize Hawkeye state
Initialize Hawkeye state
Initialize Hawkeye state
Initialize Hawkeye state
Initialize Hawkeye state
Initialize Hawkeye state
Initialize Hawkeye state
CPU 2 Bimodal branch predictor
Initialize Hawkeye state
Initialize Hawkeye state
Initialize Hawkeye state
Initialize Hawkeye state
Initialize Hawkeye state
Initialize Hawkeye state
Initialize Hawkeye state
Initialize Hawkeye state
CPU 3 Bimodal branch predictor
Initialize Hawkeye state
Initialize Hawkeye state
Initialize Hawkeye state
Initialize Hawkeye state
Initialize Hawkeye state
Initialize Hawkeye state
Initialize Hawkeye state
Initialize Hawkeye state
CPU 4 Bimodal branch predictor
Initialize Hawkeye state
Initialize Hawkeye state
Initialize Hawkeye state
Initialize Hawkeye state
Initialize Hawkeye state
Initialize Hawkeye state
Initialize Hawkeye state
Initialize Hawkeye state
CPU 5 Bimodal branch predictor
Initialize Hawkeye state
Initialize Hawkeye state
Initialize Hawkeye state
Initialize Hawkeye state
Initialize Hawkeye state
Initialize Hawkeye state
Initialize Hawkeye state
Initialize Hawkeye state
CPU 6 Bimodal branch predictor
Initialize Hawkeye state
Initialize Hawkeye state
Initialize Hawkeye state
Initialize Hawkeye state
Initialize Hawkeye state
Initialize Hawkeye state
Initialize Hawkeye state
Initialize Hawkeye state
CPU 7 Bimodal branch predictor
Initialize Hawkeye state
Initialize Hawkeye state
Initialize Hawkeye state
Initialize Hawkeye state
Initialize Hawkeye state
Initialize Hawkeye state
Initialize Hawkeye state
Initialize Hawkeye state
Heartbeat CPU 1 instructions: 10000002 cycles: 4456039 heartbeat IPC: 2.24415 cumulative IPC: 2.24415 (Simulation time: 3 hr 10 min 45 sec) 
 Total Blocks : 262144 Invalid Blocks : 58643
Heartbeat CPU 3 instructions: 10000002 cycles: 4456105 heartbeat IPC: 2.24411 cumulative IPC: 2.24411 (Simulation time: 3 hr 10 min 53 sec) 
 Total Blocks : 262144 Invalid Blocks : 58643
Heartbeat CPU 0 instructions: 10000002 cycles: 4456290 heartbeat IPC: 2.24402 cumulative IPC: 2.24402 (Simulation time: 3 hr 10 min 54 sec) 
 Total Blocks : 262144 Invalid Blocks : 58643
Heartbeat CPU 2 instructions: 10000002 cycles: 4456312 heartbeat IPC: 2.24401 cumulative IPC: 2.24401 (Simulation time: 3 hr 10 min 54 sec) 
 Total Blocks : 262144 Invalid Blocks : 58643
Heartbeat CPU 4 instructions: 10000002 cycles: 4456355 heartbeat IPC: 2.24399 cumulative IPC: 2.24399 (Simulation time: 3 hr 10 min 54 sec) 
 Total Blocks : 262144 Invalid Blocks : 58643
Heartbeat CPU 6 instructions: 10000002 cycles: 4456484 heartbeat IPC: 2.24392 cumulative IPC: 2.24392 (Simulation time: 3 hr 10 min 54 sec) 
 Total Blocks : 262144 Invalid Blocks : 58643
Heartbeat CPU 5 instructions: 10000002 cycles: 4456607 heartbeat IPC: 2.24386 cumulative IPC: 2.24386 (Simulation time: 3 hr 10 min 55 sec) 
 Total Blocks : 262144 Invalid Blocks : 58643
Heartbeat CPU 7 instructions: 10000002 cycles: 4456826 heartbeat IPC: 2.24375 cumulative IPC: 2.24375 (Simulation time: 3 hr 10 min 55 sec) 
 Total Blocks : 262144 Invalid Blocks : 58643
Heartbeat CPU 1 instructions: 20000003 cycles: 8887734 heartbeat IPC: 2.25647 cumulative IPC: 2.25029 (Simulation time: 6 hr 1 min 46 sec) 
 Total Blocks : 262144 Invalid Blocks : 21369
Heartbeat CPU 3 instructions: 20000003 cycles: 8887885 heartbeat IPC: 2.25643 cumulative IPC: 2.25025 (Simulation time: 6 hr 1 min 52 sec) 
 Total Blocks : 262144 Invalid Blocks : 21369
Heartbeat CPU 0 instructions: 20000003 cycles: 8888249 heartbeat IPC: 2.25634 cumulative IPC: 2.25016 (Simulation time: 6 hr 1 min 53 sec) 
 Total Blocks : 262144 Invalid Blocks : 21369
Heartbeat CPU 2 instructions: 20000003 cycles: 8888393 heartbeat IPC: 2.25628 cumulative IPC: 2.25013 (Simulation time: 6 hr 1 min 53 sec) 
 Total Blocks : 262144 Invalid Blocks : 21369
Heartbeat CPU 4 instructions: 20000003 cycles: 8888469 heartbeat IPC: 2.25626 cumulative IPC: 2.25011 (Simulation time: 6 hr 1 min 53 sec) 
 Total Blocks : 262144 Invalid Blocks : 21369
Heartbeat CPU 6 instructions: 20000003 cycles: 8888605 heartbeat IPC: 2.25626 cumulative IPC: 2.25007 (Simulation time: 6 hr 1 min 54 sec) 
 Total Blocks : 262144 Invalid Blocks : 21369
Heartbeat CPU 5 instructions: 20000003 cycles: 8888824 heartbeat IPC: 2.25621 cumulative IPC: 2.25002 (Simulation time: 6 hr 1 min 54 sec) 
 Total Blocks : 262144 Invalid Blocks : 21369
Heartbeat CPU 7 instructions: 20000003 cycles: 8889330 heartbeat IPC: 2.25606 cumulative IPC: 2.24989 (Simulation time: 6 hr 1 min 54 sec) 
 Total Blocks : 262144 Invalid Blocks : 21369
Heartbeat CPU 1 instructions: 30000002 cycles: 13320120 heartbeat IPC: 2.25612 cumulative IPC: 2.25223 (Simulation time: 8 hr 43 min 18 sec) 
 Total Blocks : 262144 Invalid Blocks : 8988
Heartbeat CPU 3 instructions: 30000002 cycles: 13320231 heartbeat IPC: 2.25614 cumulative IPC: 2.25221 (Simulation time: 8 hr 43 min 26 sec) 
 Total Blocks : 262144 Invalid Blocks : 8988
Heartbeat CPU 0 instructions: 30000002 cycles: 13320736 heartbeat IPC: 2.25607 cumulative IPC: 2.25213 (Simulation time: 8 hr 43 min 28 sec) 
 Total Blocks : 262144 Invalid Blocks : 8987
Heartbeat CPU 2 instructions: 30000002 cycles: 13320947 heartbeat IPC: 2.25604 cumulative IPC: 2.25209 (Simulation time: 8 hr 43 min 29 sec) 
 Total Blocks : 262144 Invalid Blocks : 8987
Heartbeat CPU 4 instructions: 30000002 cycles: 13321035 heartbeat IPC: 2.25603 cumulative IPC: 2.25208 (Simulation time: 8 hr 43 min 29 sec) 
 Total Blocks : 262144 Invalid Blocks : 8987
Heartbeat CPU 6 instructions: 30000002 cycles: 13321345 heartbeat IPC: 2.25594 cumulative IPC: 2.25202 (Simulation time: 8 hr 43 min 30 sec) 
 Total Blocks : 262144 Invalid Blocks : 8987
Heartbeat CPU 5 instructions: 30000002 cycles: 13321618 heartbeat IPC: 2.25591 cumulative IPC: 2.25198 (Simulation time: 8 hr 43 min 30 sec) 
 Total Blocks : 262144 Invalid Blocks : 8987
Heartbeat CPU 7 instructions: 30000002 cycles: 13322310 heartbeat IPC: 2.25582 cumulative IPC: 2.25186 (Simulation time: 8 hr 43 min 31 sec) 
 Total Blocks : 262144 Invalid Blocks : 8987
Heartbeat CPU 1 instructions: 40000000 cycles: 17752491 heartbeat IPC: 2.25613 cumulative IPC: 2.2532 (Simulation time: 11 hr 15 min 10 sec) 
 Total Blocks : 262144 Invalid Blocks : 4390
Heartbeat CPU 3 instructions: 40000000 cycles: 17752839 heartbeat IPC: 2.25601 cumulative IPC: 2.25316 (Simulation time: 11 hr 15 min 19 sec) 
 Total Blocks : 262144 Invalid Blocks : 4388
Heartbeat CPU 0 instructions: 40000000 cycles: 17753370 heartbeat IPC: 2.25599 cumulative IPC: 2.25309 (Simulation time: 11 hr 15 min 23 sec) 
 Total Blocks : 262144 Invalid Blocks : 4388
Heartbeat CPU 2 instructions: 40000000 cycles: 17753641 heartbeat IPC: 2.25596 cumulative IPC: 2.25306 (Simulation time: 11 hr 15 min 24 sec) 
 Total Blocks : 262144 Invalid Blocks : 4388
Heartbeat CPU 4 instructions: 40000000 cycles: 17753675 heartbeat IPC: 2.25599 cumulative IPC: 2.25305 (Simulation time: 11 hr 15 min 24 sec) 
 Total Blocks : 262144 Invalid Blocks : 4388
Heartbeat CPU 6 instructions: 40000000 cycles: 17754064 heartbeat IPC: 2.25595 cumulative IPC: 2.25301 (Simulation time: 11 hr 15 min 25 sec) 
 Total Blocks : 262144 Invalid Blocks : 4387
Heartbeat CPU 5 instructions: 40000000 cycles: 17754323 heartbeat IPC: 2.25596 cumulative IPC: 2.25297 (Simulation time: 11 hr 15 min 25 sec) 
 Total Blocks : 262144 Invalid Blocks : 4385
Heartbeat CPU 7 instructions: 40000000 cycles: 17755460 heartbeat IPC: 2.25573 cumulative IPC: 2.25283 (Simulation time: 11 hr 15 min 27 sec) 
 Total Blocks : 262144 Invalid Blocks : 4384
Heartbeat CPU 1 instructions: 50000001 cycles: 22040459 heartbeat IPC: 2.33211 cumulative IPC: 2.26856 (Simulation time: 13 hr 30 min 40 sec) 
 Total Blocks : 262144 Invalid Blocks : 2422
Heartbeat CPU 3 instructions: 50000001 cycles: 22040734 heartbeat IPC: 2.33215 cumulative IPC: 2.26853 (Simulation time: 13 hr 30 min 45 sec) 
 Total Blocks : 262144 Invalid Blocks : 2422
Heartbeat CPU 0 instructions: 50000001 cycles: 22041655 heartbeat IPC: 2.33193 cumulative IPC: 2.26843 (Simulation time: 13 hr 30 min 49 sec) 
 Total Blocks : 262144 Invalid Blocks : 2421
Heartbeat CPU 2 instructions: 50000003 cycles: 22041740 heartbeat IPC: 2.33204 cumulative IPC: 2.26842 (Simulation time: 13 hr 30 min 49 sec) 
 Total Blocks : 262144 Invalid Blocks : 2421
Heartbeat CPU 4 instructions: 50000003 cycles: 22041879 heartbeat IPC: 2.33198 cumulative IPC: 2.26841 (Simulation time: 13 hr 30 min 50 sec) 
 Total Blocks : 262144 Invalid Blocks : 2420
Heartbeat CPU 6 instructions: 50000001 cycles: 22042495 heartbeat IPC: 2.33186 cumulative IPC: 2.26835 (Simulation time: 13 hr 30 min 51 sec) 
 Total Blocks : 262144 Invalid Blocks : 2419
Heartbeat CPU 5 instructions: 50000001 cycles: 22042787 heartbeat IPC: 2.33184 cumulative IPC: 2.26832 (Simulation time: 13 hr 30 min 51 sec) 
 Total Blocks : 262144 Invalid Blocks : 2419
Heartbeat CPU 7 instructions: 50000001 cycles: 22044119 heartbeat IPC: 2.33173 cumulative IPC: 2.26818 (Simulation time: 13 hr 30 min 55 sec) 
 Total Blocks : 262144 Invalid Blocks : 2416
Heartbeat CPU 1 instructions: 60000003 cycles: 26249267 heartbeat IPC: 2.37597 cumulative IPC: 2.28578 (Simulation time: 15 hr 33 min 36 sec) 
 Total Blocks : 262144 Invalid Blocks : 1543
Heartbeat CPU 3 instructions: 60000003 cycles: 26249685 heartbeat IPC: 2.37589 cumulative IPC: 2.28574 (Simulation time: 15 hr 33 min 41 sec) 
 Total Blocks : 262144 Invalid Blocks : 1543
Heartbeat CPU 0 instructions: 60000003 cycles: 26250553 heartbeat IPC: 2.37592 cumulative IPC: 2.28567 (Simulation time: 15 hr 33 min 42 sec) 
 Total Blocks : 262144 Invalid Blocks : 1543
Heartbeat CPU 2 instructions: 60000003 cycles: 26250597 heartbeat IPC: 2.37594 cumulative IPC: 2.28566 (Simulation time: 15 hr 33 min 42 sec) 
 Total Blocks : 262144 Invalid Blocks : 1543
Heartbeat CPU 4 instructions: 60000003 cycles: 26250944 heartbeat IPC: 2.37582 cumulative IPC: 2.28563 (Simulation time: 15 hr 33 min 43 sec) 
 Total Blocks : 262144 Invalid Blocks : 1543
Heartbeat CPU 6 instructions: 60000003 cycles: 26251687 heartbeat IPC: 2.37575 cumulative IPC: 2.28557 (Simulation time: 15 hr 33 min 43 sec) 
 Total Blocks : 262144 Invalid Blocks : 1543
Heartbeat CPU 5 instructions: 60000003 cycles: 26251957 heartbeat IPC: 2.37577 cumulative IPC: 2.28554 (Simulation time: 15 hr 33 min 43 sec) 
 Total Blocks : 262144 Invalid Blocks : 1543
Heartbeat CPU 7 instructions: 60000003 cycles: 26253672 heartbeat IPC: 2.37555 cumulative IPC: 2.28539 (Simulation time: 15 hr 33 min 45 sec) 
 Total Blocks : 262144 Invalid Blocks : 1543
Heartbeat CPU 1 instructions: 70000001 cycles: 30350045 heartbeat IPC: 2.43856 cumulative IPC: 2.30642 (Simulation time: 17 hr 24 min 17 sec) 
 Total Blocks : 262144 Invalid Blocks : 1122
Heartbeat CPU 3 instructions: 70000001 cycles: 30350787 heartbeat IPC: 2.43837 cumulative IPC: 2.30637 (Simulation time: 17 hr 24 min 23 sec) 
 Total Blocks : 262144 Invalid Blocks : 1122
Heartbeat CPU 0 instructions: 70000001 cycles: 30351602 heartbeat IPC: 2.4384 cumulative IPC: 2.3063 (Simulation time: 17 hr 24 min 24 sec) 
 Total Blocks : 262144 Invalid Blocks : 1122
Heartbeat CPU 2 instructions: 70000001 cycles: 30351861 heartbeat IPC: 2.43827 cumulative IPC: 2.30628 (Simulation time: 17 hr 24 min 26 sec) 
 Total Blocks : 262144 Invalid Blocks : 1122
Heartbeat CPU 4 instructions: 70000001 cycles: 30352244 heartbeat IPC: 2.43825 cumulative IPC: 2.30625 (Simulation time: 17 hr 24 min 26 sec) 
 Total Blocks : 262144 Invalid Blocks : 1122
Heartbeat CPU 6 instructions: 70000001 cycles: 30352660 heartbeat IPC: 2.43845 cumulative IPC: 2.30622 (Simulation time: 17 hr 24 min 27 sec) 
 Total Blocks : 262144 Invalid Blocks : 1122
Heartbeat CPU 5 instructions: 70000001 cycles: 30353308 heartbeat IPC: 2.43822 cumulative IPC: 2.30617 (Simulation time: 17 hr 24 min 29 sec) 
 Total Blocks : 262144 Invalid Blocks : 1122
Heartbeat CPU 7 instructions: 70000001 cycles: 30355271 heartbeat IPC: 2.43807 cumulative IPC: 2.30602 (Simulation time: 17 hr 24 min 34 sec) 
 Total Blocks : 262144 Invalid Blocks : 1122
Heartbeat CPU 1 instructions: 80000003 cycles: 34396919 heartbeat IPC: 2.47104 cumulative IPC: 2.32579 (Simulation time: 18 hr 42 min 20 sec) 
 Total Blocks : 262144 Invalid Blocks : 436
Heartbeat CPU 3 instructions: 80000003 cycles: 34397780 heartbeat IPC: 2.47097 cumulative IPC: 2.32573 (Simulation time: 18 hr 42 min 24 sec) 
 Total Blocks : 262144 Invalid Blocks : 436
Heartbeat CPU 0 instructions: 80000003 cycles: 34398580 heartbeat IPC: 2.47098 cumulative IPC: 2.32568 (Simulation time: 18 hr 42 min 24 sec) 
 Total Blocks : 262144 Invalid Blocks : 436
Heartbeat CPU 2 instructions: 80000003 cycles: 34398875 heartbeat IPC: 2.47096 cumulative IPC: 2.32566 (Simulation time: 18 hr 42 min 24 sec) 
 Total Blocks : 262144 Invalid Blocks : 436
Heartbeat CPU 4 instructions: 80000003 cycles: 34399249 heartbeat IPC: 2.47096 cumulative IPC: 2.32563 (Simulation time: 18 hr 42 min 24 sec) 
 Total Blocks : 262144 Invalid Blocks : 436
Heartbeat CPU 6 instructions: 80000003 cycles: 34399702 heartbeat IPC: 2.47094 cumulative IPC: 2.3256 (Simulation time: 18 hr 42 min 25 sec) 
 Total Blocks : 262144 Invalid Blocks : 435
Heartbeat CPU 5 instructions: 80000003 cycles: 34400381 heartbeat IPC: 2.47092 cumulative IPC: 2.32556 (Simulation time: 18 hr 42 min 25 sec) 
 Total Blocks : 262144 Invalid Blocks : 435
Heartbeat CPU 7 instructions: 80000003 cycles: 34402348 heartbeat IPC: 2.47092 cumulative IPC: 2.32542 (Simulation time: 18 hr 42 min 26 sec) 
 Total Blocks : 262144 Invalid Blocks : 435
Heartbeat CPU 1 instructions: 90000002 cycles: 38961539 heartbeat IPC: 2.19076 cumulative IPC: 2.30997 (Simulation time: 19 hr 53 min 22 sec) 
 Total Blocks : 262144 Invalid Blocks : 173
Heartbeat CPU 3 instructions: 90000002 cycles: 38962396 heartbeat IPC: 2.19076 cumulative IPC: 2.30992 (Simulation time: 19 hr 53 min 26 sec) 
 Total Blocks : 262144 Invalid Blocks : 172
Heartbeat CPU 0 instructions: 90000002 cycles: 38963209 heartbeat IPC: 2.19076 cumulative IPC: 2.30987 (Simulation time: 19 hr 53 min 27 sec) 
 Total Blocks : 262144 Invalid Blocks : 172
Heartbeat CPU 2 instructions: 90000002 cycles: 38963547 heartbeat IPC: 2.19074 cumulative IPC: 2.30985 (Simulation time: 19 hr 53 min 27 sec) 
 Total Blocks : 262144 Invalid Blocks : 172
Heartbeat CPU 4 instructions: 90000002 cycles: 38963907 heartbeat IPC: 2.19074 cumulative IPC: 2.30983 (Simulation time: 19 hr 53 min 27 sec) 
 Total Blocks : 262144 Invalid Blocks : 172
Heartbeat CPU 6 instructions: 90000002 cycles: 38964466 heartbeat IPC: 2.19069 cumulative IPC: 2.3098 (Simulation time: 19 hr 53 min 28 sec) 
 Total Blocks : 262144 Invalid Blocks : 172
Heartbeat CPU 5 instructions: 90000002 cycles: 38964949 heartbeat IPC: 2.19079 cumulative IPC: 2.30977 (Simulation time: 19 hr 53 min 28 sec) 
 Total Blocks : 262144 Invalid Blocks : 172
Heartbeat CPU 7 instructions: 90000002 cycles: 38968205 heartbeat IPC: 2.19017 cumulative IPC: 2.30958 (Simulation time: 19 hr 53 min 31 sec) 
 Total Blocks : 262144 Invalid Blocks : 172
Heartbeat CPU 1 instructions: 100000002 cycles: 43296105 heartbeat IPC: 2.30704 cumulative IPC: 2.30968 (Simulation time: 21 hr 19 min 21 sec) 
 Total Blocks : 262144 Invalid Blocks : 68
Heartbeat CPU 3 instructions: 100000002 cycles: 43296927 heartbeat IPC: 2.30705 cumulative IPC: 2.30963 (Simulation time: 21 hr 19 min 25 sec) 
 Total Blocks : 262144 Invalid Blocks : 68
Heartbeat CPU 0 instructions: 100000002 cycles: 43297454 heartbeat IPC: 2.30721 cumulative IPC: 2.3096 (Simulation time: 21 hr 19 min 26 sec) 
 Total Blocks : 262144 Invalid Blocks : 68
Heartbeat CPU 2 instructions: 100000002 cycles: 43298132 heartbeat IPC: 2.30703 cumulative IPC: 2.30957 (Simulation time: 21 hr 19 min 27 sec) 
 Total Blocks : 262144 Invalid Blocks : 68
Heartbeat CPU 4 instructions: 100000002 cycles: 43298447 heartbeat IPC: 2.30705 cumulative IPC: 2.30955 (Simulation time: 21 hr 19 min 27 sec) 
 Total Blocks : 262144 Invalid Blocks : 68
Heartbeat CPU 6 instructions: 100000002 cycles: 43299325 heartbeat IPC: 2.30688 cumulative IPC: 2.3095 (Simulation time: 21 hr 19 min 28 sec) 
 Total Blocks : 262144 Invalid Blocks : 68
Heartbeat CPU 5 instructions: 100000002 cycles: 43299542 heartbeat IPC: 2.30702 cumulative IPC: 2.30949 (Simulation time: 21 hr 19 min 28 sec) 
 Total Blocks : 262144 Invalid Blocks : 68
Heartbeat CPU 7 instructions: 100000002 cycles: 43302614 heartbeat IPC: 2.30712 cumulative IPC: 2.30933 (Simulation time: 21 hr 19 min 31 sec) 
 Total Blocks : 262144 Invalid Blocks : 68
Heartbeat CPU 1 instructions: 110000000 cycles: 47646101 heartbeat IPC: 2.29885 cumulative IPC: 2.30869 (Simulation time: 22 hr 49 min 54 sec) 
 Total Blocks : 262144 Invalid Blocks : 12
Heartbeat CPU 3 instructions: 110000000 cycles: 47646924 heartbeat IPC: 2.29885 cumulative IPC: 2.30865 (Simulation time: 22 hr 50 min 11 sec) 
 Total Blocks : 262144 Invalid Blocks : 12
Heartbeat CPU 0 instructions: 110000000 cycles: 47647457 heartbeat IPC: 2.29885 cumulative IPC: 2.30862 (Simulation time: 22 hr 50 min 13 sec) 
 Total Blocks : 262144 Invalid Blocks : 12
Heartbeat CPU 2 instructions: 110000000 cycles: 47648089 heartbeat IPC: 2.29887 cumulative IPC: 2.30859 (Simulation time: 22 hr 50 min 14 sec) 
 Total Blocks : 262144 Invalid Blocks : 12
Heartbeat CPU 4 instructions: 110000000 cycles: 47648454 heartbeat IPC: 2.29885 cumulative IPC: 2.30857 (Simulation time: 22 hr 50 min 14 sec) 
 Total Blocks : 262144 Invalid Blocks : 12
Heartbeat CPU 6 instructions: 110000000 cycles: 47649353 heartbeat IPC: 2.29884 cumulative IPC: 2.30853 (Simulation time: 22 hr 50 min 15 sec) 
 Total Blocks : 262144 Invalid Blocks : 12
Heartbeat CPU 5 instructions: 110000000 cycles: 47649681 heartbeat IPC: 2.29878 cumulative IPC: 2.30851 (Simulation time: 22 hr 50 min 15 sec) 
 Total Blocks : 262144 Invalid Blocks : 12
Heartbeat CPU 7 instructions: 110000000 cycles: 47652525 heartbeat IPC: 2.2989 cumulative IPC: 2.30838 (Simulation time: 22 hr 50 min 17 sec) 
 Total Blocks : 262144 Invalid Blocks : 12
Heartbeat CPU 1 instructions: 120000003 cycles: 51992679 heartbeat IPC: 2.30066 cumulative IPC: 2.30802 (Simulation time: 23 hr 52 min 5 sec) 
 Total Blocks : 262144 Invalid Blocks : 4
Heartbeat CPU 3 instructions: 120000003 cycles: 51993508 heartbeat IPC: 2.30066 cumulative IPC: 2.30798 (Simulation time: 23 hr 52 min 10 sec) 
 Total Blocks : 262144 Invalid Blocks : 4
Heartbeat CPU 0 instructions: 120000003 cycles: 51993972 heartbeat IPC: 2.30069 cumulative IPC: 2.30796 (Simulation time: 23 hr 52 min 10 sec) 
 Total Blocks : 262144 Invalid Blocks : 4
Heartbeat CPU 2 instructions: 120000003 cycles: 51994659 heartbeat IPC: 2.30067 cumulative IPC: 2.30793 (Simulation time: 23 hr 52 min 10 sec) 
 Total Blocks : 262144 Invalid Blocks : 4
Heartbeat CPU 4 instructions: 120000003 cycles: 51995072 heartbeat IPC: 2.30064 cumulative IPC: 2.30791 (Simulation time: 23 hr 52 min 10 sec) 
 Total Blocks : 262144 Invalid Blocks : 4
Heartbeat CPU 6 instructions: 120000003 cycles: 51995971 heartbeat IPC: 2.30064 cumulative IPC: 2.30787 (Simulation time: 23 hr 52 min 10 sec) 
 Total Blocks : 262144 Invalid Blocks : 4
Heartbeat CPU 5 instructions: 120000003 cycles: 51996215 heartbeat IPC: 2.30068 cumulative IPC: 2.30786 (Simulation time: 23 hr 52 min 10 sec) 
 Total Blocks : 262144 Invalid Blocks : 4
Heartbeat CPU 7 instructions: 120000003 cycles: 51999038 heartbeat IPC: 2.3007 cumulative IPC: 2.30773 (Simulation time: 23 hr 52 min 11 sec) 
 Total Blocks : 262144 Invalid Blocks : 4
Heartbeat CPU 1 instructions: 130000002 cycles: 56807517 heartbeat IPC: 2.07691 cumulative IPC: 2.28843 (Simulation time: 24 hr 46 min 53 sec) 
 Total Blocks : 262144 Invalid Blocks : 2
Heartbeat CPU 3 instructions: 130000002 cycles: 56808363 heartbeat IPC: 2.07691 cumulative IPC: 2.2884 (Simulation time: 24 hr 47 min 14 sec) 
 Total Blocks : 262144 Invalid Blocks : 2
Heartbeat CPU 0 instructions: 130000002 cycles: 56808757 heartbeat IPC: 2.07694 cumulative IPC: 2.28838 (Simulation time: 24 hr 47 min 15 sec) 
 Total Blocks : 262144 Invalid Blocks : 2
Heartbeat CPU 2 instructions: 130000002 cycles: 56809479 heartbeat IPC: 2.07692 cumulative IPC: 2.28835 (Simulation time: 24 hr 47 min 15 sec) 
 Total Blocks : 262144 Invalid Blocks : 2
Heartbeat CPU 4 instructions: 130000002 cycles: 56809947 heartbeat IPC: 2.0769 cumulative IPC: 2.28833 (Simulation time: 24 hr 47 min 16 sec) 
 Total Blocks : 262144 Invalid Blocks : 2
Heartbeat CPU 6 instructions: 130000002 cycles: 56810810 heartbeat IPC: 2.07691 cumulative IPC: 2.2883 (Simulation time: 24 hr 47 min 17 sec) 
 Total Blocks : 262144 Invalid Blocks : 2
Heartbeat CPU 5 instructions: 130000002 cycles: 56811016 heartbeat IPC: 2.07693 cumulative IPC: 2.28829 (Simulation time: 24 hr 47 min 17 sec) 
 Total Blocks : 262144 Invalid Blocks : 2
Heartbeat CPU 7 instructions: 130000002 cycles: 56813807 heartbeat IPC: 2.07694 cumulative IPC: 2.28818 (Simulation time: 24 hr 47 min 19 sec) 
 Total Blocks : 262144 Invalid Blocks : 2
Heartbeat CPU 1 instructions: 140000002 cycles: 60968192 heartbeat IPC: 2.40346 cumulative IPC: 2.29628 (Simulation time: 25 hr 24 min 57 sec) 
 Total Blocks : 262144 Invalid Blocks : 0
Heartbeat CPU 3 instructions: 140000002 cycles: 60969051 heartbeat IPC: 2.40345 cumulative IPC: 2.29625 (Simulation time: 25 hr 25 min 0 sec) 
 Total Blocks : 262144 Invalid Blocks : 0
Heartbeat CPU 0 instructions: 140000002 cycles: 60969443 heartbeat IPC: 2.40345 cumulative IPC: 2.29623 (Simulation time: 25 hr 25 min 0 sec) 
 Total Blocks : 262144 Invalid Blocks : 0
Heartbeat CPU 2 instructions: 140000002 cycles: 60970141 heartbeat IPC: 2.40346 cumulative IPC: 2.29621 (Simulation time: 25 hr 25 min 1 sec) 
 Total Blocks : 262144 Invalid Blocks : 0
Heartbeat CPU 4 instructions: 140000002 cycles: 60970634 heartbeat IPC: 2.40345 cumulative IPC: 2.29619 (Simulation time: 25 hr 25 min 1 sec) 
 Total Blocks : 262144 Invalid Blocks : 0
Heartbeat CPU 6 instructions: 140000002 cycles: 60971490 heartbeat IPC: 2.40345 cumulative IPC: 2.29616 (Simulation time: 25 hr 25 min 1 sec) 
 Total Blocks : 262144 Invalid Blocks : 0
Heartbeat CPU 5 instructions: 140000002 cycles: 60971710 heartbeat IPC: 2.40345 cumulative IPC: 2.29615 (Simulation time: 25 hr 25 min 1 sec) 
 Total Blocks : 262144 Invalid Blocks : 0
Heartbeat CPU 7 instructions: 140000002 cycles: 60974502 heartbeat IPC: 2.40344 cumulative IPC: 2.29604 (Simulation time: 25 hr 25 min 3 sec) 
 Total Blocks : 262144 Invalid Blocks : 0
Heartbeat CPU 1 instructions: 150000001 cycles: 65122127 heartbeat IPC: 2.40736 cumulative IPC: 2.30336 (Simulation time: 25 hr 58 min 7 sec) 
 Total Blocks : 262144 Invalid Blocks : 0
Heartbeat CPU 3 instructions: 150000001 cycles: 65122908 heartbeat IPC: 2.4074 cumulative IPC: 2.30334 (Simulation time: 25 hr 58 min 8 sec) 
 Total Blocks : 262144 Invalid Blocks : 0
Heartbeat CPU 0 instructions: 150000001 cycles: 65123349 heartbeat IPC: 2.40737 cumulative IPC: 2.30332 (Simulation time: 25 hr 58 min 9 sec) 
 Total Blocks : 262144 Invalid Blocks : 0
Heartbeat CPU 2 instructions: 150000001 cycles: 65124055 heartbeat IPC: 2.40737 cumulative IPC: 2.3033 (Simulation time: 25 hr 58 min 9 sec) 
 Total Blocks : 262144 Invalid Blocks : 0
Heartbeat CPU 4 instructions: 150000001 cycles: 65124527 heartbeat IPC: 2.40738 cumulative IPC: 2.30328 (Simulation time: 25 hr 58 min 9 sec) 
 Total Blocks : 262144 Invalid Blocks : 0
Heartbeat CPU 6 instructions: 150000001 cycles: 65125391 heartbeat IPC: 2.40738 cumulative IPC: 2.30325 (Simulation time: 25 hr 58 min 9 sec) 
 Total Blocks : 262144 Invalid Blocks : 0
Heartbeat CPU 5 instructions: 150000001 cycles: 65125605 heartbeat IPC: 2.40738 cumulative IPC: 2.30324 (Simulation time: 25 hr 58 min 9 sec) 
 Total Blocks : 262144 Invalid Blocks : 0
Heartbeat CPU 7 instructions: 150000001 cycles: 65128405 heartbeat IPC: 2.40737 cumulative IPC: 2.30314 (Simulation time: 25 hr 58 min 10 sec) 
 Total Blocks : 262144 Invalid Blocks : 0
Heartbeat CPU 1 instructions: 160000001 cycles: 69448140 heartbeat IPC: 2.3116 cumulative IPC: 2.30388 (Simulation time: 26 hr 35 min 47 sec) 
 Total Blocks : 262144 Invalid Blocks : 0
Heartbeat CPU 3 instructions: 160000001 cycles: 69449009 heartbeat IPC: 2.31155 cumulative IPC: 2.30385 (Simulation time: 26 hr 35 min 50 sec) 
 Total Blocks : 262144 Invalid Blocks : 0
Heartbeat CPU 0 instructions: 160000001 cycles: 69449343 heartbeat IPC: 2.31161 cumulative IPC: 2.30384 (Simulation time: 26 hr 35 min 50 sec) 
 Total Blocks : 262144 Invalid Blocks : 0
Heartbeat CPU 2 instructions: 160000001 cycles: 69450180 heartbeat IPC: 2.31154 cumulative IPC: 2.30381 (Simulation time: 26 hr 35 min 50 sec) 
 Total Blocks : 262144 Invalid Blocks : 0
Heartbeat CPU 4 instructions: 160000001 cycles: 69450617 heartbeat IPC: 2.31156 cumulative IPC: 2.3038 (Simulation time: 26 hr 35 min 50 sec) 
 Total Blocks : 262144 Invalid Blocks : 0
Heartbeat CPU 6 instructions: 160000001 cycles: 69451639 heartbeat IPC: 2.31147 cumulative IPC: 2.30376 (Simulation time: 26 hr 35 min 51 sec) 
 Total Blocks : 262144 Invalid Blocks : 0
Heartbeat CPU 5 instructions: 160000001 cycles: 69451871 heartbeat IPC: 2.31146 cumulative IPC: 2.30375 (Simulation time: 26 hr 35 min 51 sec) 
 Total Blocks : 262144 Invalid Blocks : 0
Heartbeat CPU 7 instructions: 160000001 cycles: 69454756 heartbeat IPC: 2.31142 cumulative IPC: 2.30366 (Simulation time: 26 hr 35 min 52 sec) 
 Total Blocks : 262144 Invalid Blocks : 0
Heartbeat CPU 1 instructions: 170000003 cycles: 73777362 heartbeat IPC: 2.30988 cumulative IPC: 2.30423 (Simulation time: 27 hr 21 min 12 sec) 
 Total Blocks : 262144 Invalid Blocks : 0
Heartbeat CPU 3 instructions: 170000003 cycles: 73778261 heartbeat IPC: 2.30987 cumulative IPC: 2.3042 (Simulation time: 27 hr 21 min 15 sec) 
 Total Blocks : 262144 Invalid Blocks : 0
Heartbeat CPU 0 instructions: 170000003 cycles: 73778572 heartbeat IPC: 2.30988 cumulative IPC: 2.30419 (Simulation time: 27 hr 21 min 15 sec) 
 Total Blocks : 262144 Invalid Blocks : 0
Heartbeat CPU 2 instructions: 170000003 cycles: 73779414 heartbeat IPC: 2.30988 cumulative IPC: 2.30417 (Simulation time: 27 hr 21 min 16 sec) 
 Total Blocks : 262144 Invalid Blocks : 0
Heartbeat CPU 4 instructions: 170000003 cycles: 73780048 heartbeat IPC: 2.30977 cumulative IPC: 2.30415 (Simulation time: 27 hr 21 min 16 sec) 
 Total Blocks : 262144 Invalid Blocks : 0
Heartbeat CPU 5 instructions: 170000003 cycles: 73781335 heartbeat IPC: 2.30976 cumulative IPC: 2.30411 (Simulation time: 27 hr 21 min 17 sec) 
 Total Blocks : 262144 Invalid Blocks : 0
Heartbeat CPU 6 instructions: 170000003 cycles: 73781515 heartbeat IPC: 2.30954 cumulative IPC: 2.3041 (Simulation time: 27 hr 21 min 17 sec) 
 Total Blocks : 262144 Invalid Blocks : 0
Heartbeat CPU 7 instructions: 170000003 cycles: 73786233 heartbeat IPC: 2.30868 cumulative IPC: 2.30395 (Simulation time: 27 hr 21 min 20 sec) 
 Total Blocks : 262144 Invalid Blocks : 0
Heartbeat CPU 1 instructions: 180000000 cycles: 78128264 heartbeat IPC: 2.29837 cumulative IPC: 2.3039 (Simulation time: 28 hr 26 min 33 sec) 
 Total Blocks : 262144 Invalid Blocks : 0
Heartbeat CPU 3 instructions: 180000000 cycles: 78129067 heartbeat IPC: 2.29842 cumulative IPC: 2.30388 (Simulation time: 28 hr 26 min 36 sec) 
 Total Blocks : 262144 Invalid Blocks : 0
Heartbeat CPU 0 instructions: 180000000 cycles: 78129422 heartbeat IPC: 2.2984 cumulative IPC: 2.30387 (Simulation time: 28 hr 26 min 36 sec) 
 Total Blocks : 262144 Invalid Blocks : 0
Heartbeat CPU 2 instructions: 180000000 cycles: 78130210 heartbeat IPC: 2.29843 cumulative IPC: 2.30385 (Simulation time: 28 hr 26 min 36 sec) 
 Total Blocks : 262144 Invalid Blocks : 0
Heartbeat CPU 4 instructions: 180000000 cycles: 78131058 heartbeat IPC: 2.29832 cumulative IPC: 2.30382 (Simulation time: 28 hr 26 min 36 sec) 
 Total Blocks : 262144 Invalid Blocks : 0
Heartbeat CPU 5 instructions: 180000000 cycles: 78132351 heartbeat IPC: 2.29831 cumulative IPC: 2.30378 (Simulation time: 28 hr 26 min 38 sec) 
 Total Blocks : 262144 Invalid Blocks : 0
Heartbeat CPU 6 instructions: 180000000 cycles: 78133134 heartbeat IPC: 2.29799 cumulative IPC: 2.30376 (Simulation time: 28 hr 26 min 38 sec) 
 Total Blocks : 262144 Invalid Blocks : 0
Heartbeat CPU 7 instructions: 180000000 cycles: 78138626 heartbeat IPC: 2.29759 cumulative IPC: 2.3036 (Simulation time: 28 hr 26 min 40 sec) 
 Total Blocks : 262144 Invalid Blocks : 0
Heartbeat CPU 1 instructions: 190000000 cycles: 82520423 heartbeat IPC: 2.27678 cumulative IPC: 2.30246 (Simulation time: 29 hr 47 min 7 sec) 
 Total Blocks : 262144 Invalid Blocks : 0
Heartbeat CPU 3 instructions: 190000000 cycles: 82521316 heartbeat IPC: 2.27674 cumulative IPC: 2.30244 (Simulation time: 29 hr 47 min 9 sec) 
 Total Blocks : 262144 Invalid Blocks : 0
Heartbeat CPU 0 instructions: 190000000 cycles: 82521706 heartbeat IPC: 2.27672 cumulative IPC: 2.30242 (Simulation time: 29 hr 47 min 9 sec) 
 Total Blocks : 262144 Invalid Blocks : 0
Heartbeat CPU 2 instructions: 190000000 cycles: 82522482 heartbeat IPC: 2.27673 cumulative IPC: 2.3024 (Simulation time: 29 hr 47 min 10 sec) 
 Total Blocks : 262144 Invalid Blocks : 0
Heartbeat CPU 4 instructions: 190000000 cycles: 82523432 heartbeat IPC: 2.27667 cumulative IPC: 2.30238 (Simulation time: 29 hr 47 min 11 sec) 
 Total Blocks : 262144 Invalid Blocks : 0
Heartbeat CPU 5 instructions: 190000000 cycles: 82524585 heartbeat IPC: 2.27675 cumulative IPC: 2.30234 (Simulation time: 29 hr 47 min 11 sec) 
 Total Blocks : 262144 Invalid Blocks : 0
Heartbeat CPU 6 instructions: 190000000 cycles: 82525491 heartbeat IPC: 2.27668 cumulative IPC: 2.30232 (Simulation time: 29 hr 47 min 12 sec) 
 Total Blocks : 262144 Invalid Blocks : 0
Heartbeat CPU 7 instructions: 190000000 cycles: 82531247 heartbeat IPC: 2.27655 cumulative IPC: 2.30216 (Simulation time: 29 hr 47 min 17 sec) 
 Total Blocks : 262144 Invalid Blocks : 0
Heartbeat CPU 1 instructions: 200000002 cycles: 86908779 heartbeat IPC: 2.27876 cumulative IPC: 2.30126 (Simulation time: 31 hr 6 min 10 sec) 
 Total Blocks : 262144 Invalid Blocks : 0
Heartbeat CPU 3 instructions: 200000002 cycles: 86909738 heartbeat IPC: 2.27872 cumulative IPC: 2.30124 (Simulation time: 31 hr 6 min 14 sec) 
 Total Blocks : 262144 Invalid Blocks : 0
Heartbeat CPU 0 instructions: 200000002 cycles: 86910200 heartbeat IPC: 2.27869 cumulative IPC: 2.30123 (Simulation time: 31 hr 6 min 14 sec) 
 Total Blocks : 262144 Invalid Blocks : 0
Heartbeat CPU 2 instructions: 200000002 cycles: 86910995 heartbeat IPC: 2.27868 cumulative IPC: 2.3012 (Simulation time: 31 hr 6 min 15 sec) 
 Total Blocks : 262144 Invalid Blocks : 0
Heartbeat CPU 4 instructions: 200000002 cycles: 86912110 heartbeat IPC: 2.27859 cumulative IPC: 2.30118 (Simulation time: 31 hr 6 min 16 sec) 
 Total Blocks : 262144 Invalid Blocks : 0
Heartbeat CPU 5 instructions: 200000002 cycles: 86913132 heartbeat IPC: 2.27866 cumulative IPC: 2.30115 (Simulation time: 31 hr 6 min 16 sec) 
 Total Blocks : 262144 Invalid Blocks : 0
Heartbeat CPU 6 instructions: 200000002 cycles: 86913740 heartbeat IPC: 2.27881 cumulative IPC: 2.30113 (Simulation time: 31 hr 6 min 17 sec) 
 Total Blocks : 262144 Invalid Blocks : 0
Heartbeat CPU 7 instructions: 200000002 cycles: 86920008 heartbeat IPC: 2.27855 cumulative IPC: 2.30097 (Simulation time: 31 hr 6 min 19 sec) 
 Total Blocks : 262144 Invalid Blocks : 0

Warmup complete CPU 0 instructions: 200017807 cycles: 86920008 (Simulation time: 31 hr 6 min 19 sec) 
Warmup complete CPU 1 instructions: 200020137 cycles: 86920008 (Simulation time: 31 hr 6 min 19 sec) 
Warmup complete CPU 2 instructions: 200016524 cycles: 86920008 (Simulation time: 31 hr 6 min 19 sec) 
Warmup complete CPU 3 instructions: 200018619 cycles: 86920008 (Simulation time: 31 hr 6 min 19 sec) 
Warmup complete CPU 4 instructions: 200014842 cycles: 86920008 (Simulation time: 31 hr 6 min 19 sec) 
Warmup complete CPU 5 instructions: 200013186 cycles: 86920008 (Simulation time: 31 hr 6 min 19 sec) 
Warmup complete CPU 6 instructions: 200012036 cycles: 86920008 (Simulation time: 31 hr 6 min 19 sec) 
Warmup complete CPU 7 instructions: 200000002 cycles: 86920008 (Simulation time: 31 hr 6 min 19 sec) 

Heartbeat CPU 1 instructions: 210000001 cycles: 96428432 heartbeat IPC: 1.05046 cumulative IPC: 1.04958 (Simulation time: 32 hr 43 min 32 sec) 
 Total Blocks : 262144 Invalid Blocks : 0
Heartbeat CPU 0 instructions: 210000001 cycles: 96460388 heartbeat IPC: 1.0471 cumulative IPC: 1.04631 (Simulation time: 32 hr 43 min 57 sec) 
 Total Blocks : 262144 Invalid Blocks : 0
Heartbeat CPU 4 instructions: 210000001 cycles: 96462798 heartbeat IPC: 1.04704 cumulative IPC: 1.04636 (Simulation time: 32 hr 44 min 0 sec) 
 Total Blocks : 262144 Invalid Blocks : 0
Heartbeat CPU 5 instructions: 210000001 cycles: 96493414 heartbeat IPC: 1.04381 cumulative IPC: 1.04318 (Simulation time: 32 hr 44 min 27 sec) 
 Total Blocks : 262144 Invalid Blocks : 0
Heartbeat CPU 2 instructions: 210000001 cycles: 96509248 heartbeat IPC: 1.04186 cumulative IPC: 1.04111 (Simulation time: 32 hr 44 min 42 sec) 
 Total Blocks : 262144 Invalid Blocks : 0
Heartbeat CPU 6 instructions: 210000001 cycles: 96532379 heartbeat IPC: 1.03965 cumulative IPC: 1.03907 (Simulation time: 32 hr 44 min 58 sec) 
 Total Blocks : 262144 Invalid Blocks : 0
Heartbeat CPU 3 instructions: 210000001 cycles: 96543173 heartbeat IPC: 1.03805 cumulative IPC: 1.03722 (Simulation time: 32 hr 45 min 4 sec) 
 Total Blocks : 262144 Invalid Blocks : 0
Heartbeat CPU 7 instructions: 210000001 cycles: 96559061 heartbeat IPC: 1.03745 cumulative IPC: 1.03745 (Simulation time: 32 hr 45 min 12 sec) 
 Total Blocks : 262144 Invalid Blocks : 0
Heartbeat CPU 1 instructions: 220000000 cycles: 105857944 heartbeat IPC: 1.0605 cumulative IPC: 1.05502 (Simulation time: 34 hr 21 min 50 sec) 
 Total Blocks : 262144 Invalid Blocks : 0
Heartbeat CPU 4 instructions: 220000000 cycles: 105874685 heartbeat IPC: 1.06249 cumulative IPC: 1.05437 (Simulation time: 34 hr 22 min 1 sec) 
 Total Blocks : 262144 Invalid Blocks : 0
Heartbeat CPU 0 instructions: 220000000 cycles: 105951959 heartbeat IPC: 1.05357 cumulative IPC: 1.04993 (Simulation time: 34 hr 23 min 1 sec) 
 Total Blocks : 262144 Invalid Blocks : 0
Heartbeat CPU 5 instructions: 220000000 cycles: 105993857 heartbeat IPC: 1.05258 cumulative IPC: 1.04786 (Simulation time: 34 hr 23 min 28 sec) 
 Total Blocks : 262144 Invalid Blocks : 0
Heartbeat CPU 2 instructions: 220000000 cycles: 105999279 heartbeat IPC: 1.05374 cumulative IPC: 1.04739 (Simulation time: 34 hr 23 min 35 sec) 
 Total Blocks : 262144 Invalid Blocks : 0
Heartbeat CPU 3 instructions: 220000000 cycles: 106021022 heartbeat IPC: 1.05509 cumulative IPC: 1.04609 (Simulation time: 34 hr 23 min 48 sec) 
 Total Blocks : 262144 Invalid Blocks : 0
Heartbeat CPU 6 instructions: 220000000 cycles: 106044939 heartbeat IPC: 1.05124 cumulative IPC: 1.04513 (Simulation time: 34 hr 24 min 23 sec) 
 Total Blocks : 262144 Invalid Blocks : 0
Heartbeat CPU 7 instructions: 220000000 cycles: 106055070 heartbeat IPC: 1.05307 cumulative IPC: 1.0452 (Simulation time: 34 hr 24 min 31 sec) 
 Total Blocks : 262144 Invalid Blocks : 0
Heartbeat CPU 1 instructions: 230000000 cycles: 115153528 heartbeat IPC: 1.07578 cumulative IPC: 1.06185 (Simulation time: 35 hr 56 min 32 sec) 
 Total Blocks : 262144 Invalid Blocks : 0
Heartbeat CPU 4 instructions: 230000000 cycles: 115167586 heartbeat IPC: 1.07609 cumulative IPC: 1.06151 (Simulation time: 35 hr 56 min 42 sec) 
 Total Blocks : 262144 Invalid Blocks : 0
Heartbeat CPU 0 instructions: 230000000 cycles: 115306573 heartbeat IPC: 1.06899 cumulative IPC: 1.05621 (Simulation time: 35 hr 58 min 7 sec) 
 Total Blocks : 262144 Invalid Blocks : 0
Heartbeat CPU 5 instructions: 230000000 cycles: 115362034 heartbeat IPC: 1.06744 cumulative IPC: 1.05431 (Simulation time: 35 hr 58 min 48 sec) 
 Total Blocks : 262144 Invalid Blocks : 0
Heartbeat CPU 2 instructions: 230000000 cycles: 115402444 heartbeat IPC: 1.06347 cumulative IPC: 1.0527 (Simulation time: 35 hr 59 min 10 sec) 
 Total Blocks : 262144 Invalid Blocks : 0
Heartbeat CPU 6 instructions: 230000000 cycles: 115455950 heartbeat IPC: 1.06259 cumulative IPC: 1.05088 (Simulation time: 36 hr 0 min 1 sec) 
 Total Blocks : 262144 Invalid Blocks : 0
Heartbeat CPU 3 instructions: 230000000 cycles: 115464361 heartbeat IPC: 1.05895 cumulative IPC: 1.05034 (Simulation time: 36 hr 0 min 8 sec) 
 Total Blocks : 262144 Invalid Blocks : 0
Heartbeat CPU 7 instructions: 230000000 cycles: 115467862 heartbeat IPC: 1.06238 cumulative IPC: 1.05087 (Simulation time: 36 hr 0 min 11 sec) 
 Total Blocks : 262144 Invalid Blocks : 0
Heartbeat CPU 1 instructions: 240000001 cycles: 124212057 heartbeat IPC: 1.10393 cumulative IPC: 1.07207 (Simulation time: 37 hr 33 min 27 sec) 
 Total Blocks : 262144 Invalid Blocks : 0
Heartbeat CPU 4 instructions: 240000001 cycles: 124220904 heartbeat IPC: 1.10457 cumulative IPC: 1.07196 (Simulation time: 37 hr 33 min 33 sec) 
 Total Blocks : 262144 Invalid Blocks : 0
Heartbeat CPU 0 instructions: 240000001 cycles: 124487523 heartbeat IPC: 1.08921 cumulative IPC: 1.06428 (Simulation time: 37 hr 36 min 14 sec) 
 Total Blocks : 262144 Invalid Blocks : 0
Heartbeat CPU 5 instructions: 240000001 cycles: 124514736 heartbeat IPC: 1.09257 cumulative IPC: 1.06363 (Simulation time: 37 hr 36 min 26 sec) 
 Total Blocks : 262144 Invalid Blocks : 0
Heartbeat CPU 6 instructions: 240000001 cycles: 124633930 heartbeat IPC: 1.08956 cumulative IPC: 1.0603 (Simulation time: 37 hr 37 min 32 sec) 
 Total Blocks : 262144 Invalid Blocks : 0
Heartbeat CPU 2 instructions: 240000001 cycles: 124648465 heartbeat IPC: 1.08155 cumulative IPC: 1.05977 (Simulation time: 37 hr 37 min 40 sec) 
 Total Blocks : 262144 Invalid Blocks : 0
Heartbeat CPU 7 instructions: 240000001 cycles: 124715306 heartbeat IPC: 1.08138 cumulative IPC: 1.05833 (Simulation time: 37 hr 38 min 31 sec) 
 Total Blocks : 262144 Invalid Blocks : 0
Heartbeat CPU 3 instructions: 240000001 cycles: 124729739 heartbeat IPC: 1.07929 cumulative IPC: 1.05744 (Simulation time: 37 hr 38 min 40 sec) 
 Total Blocks : 262144 Invalid Blocks : 0
Heartbeat CPU 1 instructions: 250000001 cycles: 132978668 heartbeat IPC: 1.14069 cumulative IPC: 1.08513 (Simulation time: 39 hr 6 min 23 sec) 
 Total Blocks : 262144 Invalid Blocks : 0
Heartbeat CPU 4 instructions: 250000001 cycles: 132995048 heartbeat IPC: 1.13971 cumulative IPC: 1.08486 (Simulation time: 39 hr 6 min 35 sec) 
 Total Blocks : 262144 Invalid Blocks : 0
Heartbeat CPU 0 instructions: 250000001 cycles: 133282174 heartbeat IPC: 1.13705 cumulative IPC: 1.07808 (Simulation time: 39 hr 9 min 24 sec) 
 Total Blocks : 262144 Invalid Blocks : 0
Heartbeat CPU 5 instructions: 250000001 cycles: 133352764 heartbeat IPC: 1.13147 cumulative IPC: 1.07654 (Simulation time: 39 hr 10 min 8 sec) 
 Total Blocks : 262144 Invalid Blocks : 0
Heartbeat CPU 6 instructions: 250000001 cycles: 133457062 heartbeat IPC: 1.13338 cumulative IPC: 1.07415 (Simulation time: 39 hr 11 min 3 sec) 
 Total Blocks : 262144 Invalid Blocks : 0
Heartbeat CPU 2 instructions: 250000001 cycles: 133500688 heartbeat IPC: 1.12966 cumulative IPC: 1.07305 (Simulation time: 39 hr 11 min 40 sec) 
 Total Blocks : 262144 Invalid Blocks : 0
Heartbeat CPU 3 instructions: 250000001 cycles: 133581722 heartbeat IPC: 1.12969 cumulative IPC: 1.07114 (Simulation time: 39 hr 12 min 22 sec) 
 Total Blocks : 262144 Invalid Blocks : 0
Heartbeat CPU 7 instructions: 250000001 cycles: 133588678 heartbeat IPC: 1.12697 cumulative IPC: 1.07138 (Simulation time: 39 hr 12 min 27 sec) 
 Total Blocks : 262144 Invalid Blocks : 0
Heartbeat CPU 4 instructions: 260000003 cycles: 141919942 heartbeat IPC: 1.12046 cumulative IPC: 1.09064 (Simulation time: 40 hr 22 min 23 sec) 
 Total Blocks : 262144 Invalid Blocks : 0
Heartbeat CPU 1 instructions: 260000003 cycles: 141941251 heartbeat IPC: 1.11575 cumulative IPC: 1.09012 (Simulation time: 40 hr 22 min 32 sec) 
 Total Blocks : 262144 Invalid Blocks : 0
Heartbeat CPU 0 instructions: 260000003 cycles: 142344524 heartbeat IPC: 1.10347 cumulative IPC: 1.08223 (Simulation time: 40 hr 25 min 19 sec) 
 Total Blocks : 262144 Invalid Blocks : 0
Heartbeat CPU 5 instructions: 260000001 cycles: 142433336 heartbeat IPC: 1.10125 cumulative IPC: 1.08058 (Simulation time: 40 hr 26 min 7 sec) 
 Total Blocks : 262144 Invalid Blocks : 0
Heartbeat CPU 6 instructions: 260000003 cycles: 142546228 heartbeat IPC: 1.10021 cumulative IPC: 1.07841 (Simulation time: 40 hr 27 min 1 sec) 
 Total Blocks : 262144 Invalid Blocks : 0
Heartbeat CPU 2 instructions: 260000003 cycles: 142608125 heartbeat IPC: 1.098 cumulative IPC: 1.07713 (Simulation time: 40 hr 27 min 23 sec) 
 Total Blocks : 262144 Invalid Blocks : 0
Heartbeat CPU 3 instructions: 260000003 cycles: 142667074 heartbeat IPC: 1.10067 cumulative IPC: 1.07596 (Simulation time: 40 hr 27 min 45 sec) 
 Total Blocks : 262144 Invalid Blocks : 0
Heartbeat CPU 7 instructions: 260000001 cycles: 142668707 heartbeat IPC: 1.10132 cumulative IPC: 1.07626 (Simulation time: 40 hr 27 min 47 sec) 
 Total Blocks : 262144 Invalid Blocks : 0
Heartbeat CPU 4 instructions: 270000001 cycles: 152899706 heartbeat IPC: 0.910766 cumulative IPC: 1.06071 (Simulation time: 41 hr 29 min 1 sec) 
 Total Blocks : 262144 Invalid Blocks : 0
Heartbeat CPU 1 instructions: 270000001 cycles: 152943421 heartbeat IPC: 0.908911 cumulative IPC: 1.05992 (Simulation time: 41 hr 29 min 18 sec) 
 Total Blocks : 262144 Invalid Blocks : 0
Heartbeat CPU 0 instructions: 270000001 cycles: 153267960 heartbeat IPC: 0.915463 cumulative IPC: 1.05478 (Simulation time: 41 hr 32 min 26 sec) 
 Total Blocks : 262144 Invalid Blocks : 0
Heartbeat CPU 5 instructions: 270000001 cycles: 153350777 heartbeat IPC: 0.915966 cumulative IPC: 1.05353 (Simulation time: 41 hr 32 min 57 sec) 
 Total Blocks : 262144 Invalid Blocks : 0
Heartbeat CPU 6 instructions: 270000001 cycles: 153438418 heartbeat IPC: 0.918089 cumulative IPC: 1.05216 (Simulation time: 41 hr 33 min 37 sec) 
 Total Blocks : 262144 Invalid Blocks : 0
Heartbeat CPU 2 instructions: 270000001 cycles: 153489181 heartbeat IPC: 0.919028 cumulative IPC: 1.05129 (Simulation time: 41 hr 33 min 57 sec) 
 Total Blocks : 262144 Invalid Blocks : 0
Heartbeat CPU 7 instructions: 270000001 cycles: 153580867 heartbeat IPC: 0.916409 cumulative IPC: 1.05009 (Simulation time: 41 hr 34 min 31 sec) 
 Total Blocks : 262144 Invalid Blocks : 0
Heartbeat CPU 3 instructions: 270000001 cycles: 153589262 heartbeat IPC: 0.915567 cumulative IPC: 1.04968 (Simulation time: 41 hr 34 min 53 sec) 
 Total Blocks : 262144 Invalid Blocks : 0
Heartbeat CPU 1 instructions: 280000000 cycles: 162315968 heartbeat IPC: 1.06695 cumulative IPC: 1.0608 (Simulation time: 42 hr 48 min 19 sec) 
 Total Blocks : 262144 Invalid Blocks : 0
Heartbeat CPU 4 instructions: 280000000 cycles: 162355625 heartbeat IPC: 1.05754 cumulative IPC: 1.06031 (Simulation time: 42 hr 48 min 54 sec) 
 Total Blocks : 262144 Invalid Blocks : 0
Heartbeat CPU 0 instructions: 280000000 cycles: 163024158 heartbeat IPC: 1.02499 cumulative IPC: 1.05096 (Simulation time: 42 hr 52 min 59 sec) 
 Total Blocks : 262144 Invalid Blocks : 0
Heartbeat CPU 5 instructions: 280000000 cycles: 163079338 heartbeat IPC: 1.0279 cumulative IPC: 1.05026 (Simulation time: 42 hr 53 min 14 sec) 
 Total Blocks : 262144 Invalid Blocks : 0
Heartbeat CPU 2 instructions: 280000000 cycles: 163338419 heartbeat IPC: 1.01531 cumulative IPC: 1.04665 (Simulation time: 42 hr 54 min 31 sec) 
 Total Blocks : 262144 Invalid Blocks : 0
Heartbeat CPU 6 instructions: 280000000 cycles: 163338593 heartbeat IPC: 1.01008 cumulative IPC: 1.04671 (Simulation time: 42 hr 54 min 34 sec) 
 Total Blocks : 262144 Invalid Blocks : 0
Heartbeat CPU 7 instructions: 280000000 cycles: 163522113 heartbeat IPC: 1.00591 cumulative IPC: 1.04436 (Simulation time: 42 hr 55 min 35 sec) 
 Total Blocks : 262144 Invalid Blocks : 0
Heartbeat CPU 3 instructions: 280000000 cycles: 163561848 heartbeat IPC: 1.00275 cumulative IPC: 1.04357 (Simulation time: 42 hr 55 min 45 sec) 
 Total Blocks : 262144 Invalid Blocks : 0
Heartbeat CPU 1 instructions: 290000002 cycles: 174799225 heartbeat IPC: 0.801073 cumulative IPC: 1.0239 (Simulation time: 44 hr 13 min 41 sec) 
 Total Blocks : 262144 Invalid Blocks : 0
Heartbeat CPU 4 instructions: 290000002 cycles: 175216016 heartbeat IPC: 0.777582 cumulative IPC: 1.01913 (Simulation time: 44 hr 17 min 14 sec) 
 Total Blocks : 262144 Invalid Blocks : 0
Heartbeat CPU 0 instructions: 290000002 cycles: 176416982 heartbeat IPC: 0.746669 cumulative IPC: 1.00542 (Simulation time: 44 hr 26 min 44 sec) 
 Total Blocks : 262144 Invalid Blocks : 0
Heartbeat CPU 5 instructions: 290000002 cycles: 176708727 heartbeat IPC: 0.733709 cumulative IPC: 1.00221 (Simulation time: 44 hr 29 min 16 sec) 
 Total Blocks : 262144 Invalid Blocks : 0
Heartbeat CPU 2 instructions: 290000002 cycles: 176733551 heartbeat IPC: 0.74654 cumulative IPC: 1.00189 (Simulation time: 44 hr 29 min 29 sec) 
 Total Blocks : 262144 Invalid Blocks : 0
Heartbeat CPU 6 instructions: 290000002 cycles: 176843192 heartbeat IPC: 0.740489 cumulative IPC: 1.00072 (Simulation time: 44 hr 30 min 22 sec) 
 Total Blocks : 262144 Invalid Blocks : 0
Heartbeat CPU 3 instructions: 290000002 cycles: 177141228 heartbeat IPC: 0.736411 cumulative IPC: 0.997342 (Simulation time: 44 hr 33 min 15 sec) 
 Total Blocks : 262144 Invalid Blocks : 0
Heartbeat CPU 7 instructions: 290000002 cycles: 177150376 heartbeat IPC: 0.733769 cumulative IPC: 0.997447 (Simulation time: 44 hr 33 min 24 sec) 
 Total Blocks : 262144 Invalid Blocks : 0
Heartbeat CPU 1 instructions: 300000000 cycles: 188873091 heartbeat IPC: 0.710537 cumulative IPC: 0.980646 (Simulation time: 45 hr 32 min 41 sec) 
 Total Blocks : 262144 Invalid Blocks : 0
Heartbeat CPU 4 instructions: 300000000 cycles: 189147703 heartbeat IPC: 0.717788 cumulative IPC: 0.978063 (Simulation time: 45 hr 33 min 40 sec) 
 Total Blocks : 262144 Invalid Blocks : 0
Heartbeat CPU 0 instructions: 300000000 cycles: 189966679 heartbeat IPC: 0.738024 cumulative IPC: 0.970261 (Simulation time: 45 hr 36 min 29 sec) 
 Total Blocks : 262144 Invalid Blocks : 0
Heartbeat CPU 2 instructions: 300000000 cycles: 190123620 heartbeat IPC: 0.746822 cumulative IPC: 0.968798 (Simulation time: 45 hr 37 min 13 sec) 
 Total Blocks : 262144 Invalid Blocks : 0
Heartbeat CPU 5 instructions: 300000000 cycles: 190134583 heartbeat IPC: 0.744831 cumulative IPC: 0.968728 (Simulation time: 45 hr 37 min 17 sec) 
 Total Blocks : 262144 Invalid Blocks : 0
Heartbeat CPU 6 instructions: 300000000 cycles: 190177628 heartbeat IPC: 0.749938 cumulative IPC: 0.968335 (Simulation time: 45 hr 37 min 25 sec) 
 Total Blocks : 262144 Invalid Blocks : 0
Heartbeat CPU 3 instructions: 300000000 cycles: 190278263 heartbeat IPC: 0.761207 cumulative IPC: 0.967328 (Simulation time: 45 hr 37 min 45 sec) 
 Total Blocks : 262144 Invalid Blocks : 0
Heartbeat CPU 7 instructions: 300000000 cycles: 190293524 heartbeat IPC: 0.760853 cumulative IPC: 0.967366 (Simulation time: 45 hr 37 min 51 sec) 
 Total Blocks : 262144 Invalid Blocks : 0
Heartbeat CPU 1 instructions: 310000000 cycles: 199968135 heartbeat IPC: 0.901303 cumulative IPC: 0.972859 (Simulation time: 46 hr 27 min 26 sec) 
 Total Blocks : 262144 Invalid Blocks : 0
Heartbeat CPU 4 instructions: 310000000 cycles: 200356349 heartbeat IPC: 0.892168 cumulative IPC: 0.969576 (Simulation time: 46 hr 29 min 0 sec) 
 Total Blocks : 262144 Invalid Blocks : 0
Heartbeat CPU 0 instructions: 310000000 cycles: 201240991 heartbeat IPC: 0.886972 cumulative IPC: 0.962047 (Simulation time: 46 hr 33 min 50 sec) 
 Total Blocks : 262144 Invalid Blocks : 0
Heartbeat CPU 5 instructions: 310000000 cycles: 201848480 heartbeat IPC: 0.853687 cumulative IPC: 0.957002 (Simulation time: 46 hr 36 min 52 sec) 
 Total Blocks : 262144 Invalid Blocks : 0
Heartbeat CPU 2 instructions: 310000000 cycles: 201904612 heartbeat IPC: 0.848825 cumulative IPC: 0.956506 (Simulation time: 46 hr 37 min 8 sec) 
 Total Blocks : 262144 Invalid Blocks : 0
Heartbeat CPU 7 instructions: 310000000 cycles: 201907232 heartbeat IPC: 0.861051 cumulative IPC: 0.956628 (Simulation time: 46 hr 37 min 10 sec) 
 Total Blocks : 262144 Invalid Blocks : 0
Heartbeat CPU 6 instructions: 310000000 cycles: 201918635 heartbeat IPC: 0.851716 cumulative IPC: 0.956428 (Simulation time: 46 hr 37 min 12 sec) 
 Total Blocks : 262144 Invalid Blocks : 0
Heartbeat CPU 3 instructions: 310000000 cycles: 201933059 heartbeat IPC: 0.858016 cumulative IPC: 0.956251 (Simulation time: 46 hr 37 min 15 sec) 
 Total Blocks : 262144 Invalid Blocks : 0
Heartbeat CPU 1 instructions: 320000002 cycles: 210515329 heartbeat IPC: 0.94812 cumulative IPC: 0.970748 (Simulation time: 47 hr 19 min 1 sec) 
 Total Blocks : 262144 Invalid Blocks : 0
Heartbeat CPU 4 instructions: 320000002 cycles: 210896217 heartbeat IPC: 0.948779 cumulative IPC: 0.967808 (Simulation time: 47 hr 20 min 30 sec) 
 Total Blocks : 262144 Invalid Blocks : 0
Heartbeat CPU 0 instructions: 320000002 cycles: 212394275 heartbeat IPC: 0.896597 cumulative IPC: 0.95623 (Simulation time: 47 hr 26 min 0 sec) 
 Total Blocks : 262144 Invalid Blocks : 0
Heartbeat CPU 5 instructions: 320000002 cycles: 214150530 heartbeat IPC: 0.812873 cumulative IPC: 0.943066 (Simulation time: 47 hr 33 min 19 sec) 
 Total Blocks : 262144 Invalid Blocks : 0
Heartbeat CPU 6 instructions: 320000002 cycles: 214193803 heartbeat IPC: 0.814653 cumulative IPC: 0.942755 (Simulation time: 47 hr 33 min 31 sec) 
 Total Blocks : 262144 Invalid Blocks : 0
Heartbeat CPU 2 instructions: 320000002 cycles: 214211851 heartbeat IPC: 0.81253 cumulative IPC: 0.942586 (Simulation time: 47 hr 33 min 38 sec) 
 Total Blocks : 262144 Invalid Blocks : 0
Heartbeat CPU 3 instructions: 320000002 cycles: 214222551 heartbeat IPC: 0.813703 cumulative IPC: 0.94249 (Simulation time: 47 hr 33 min 41 sec) 
 Total Blocks : 262144 Invalid Blocks : 0
Heartbeat CPU 7 instructions: 320000002 cycles: 214222602 heartbeat IPC: 0.811994 cumulative IPC: 0.942636 (Simulation time: 47 hr 33 min 41 sec) 
 Total Blocks : 262144 Invalid Blocks : 0
Heartbeat CPU 1 instructions: 330000000 cycles: 219196263 heartbeat IPC: 1.15195 cumulative IPC: 0.982639 (Simulation time: 47 hr 58 min 13 sec) 
 Total Blocks : 262144 Invalid Blocks : 0
Heartbeat CPU 4 instructions: 330000000 cycles: 219700341 heartbeat IPC: 1.13583 cumulative IPC: 0.978949 (Simulation time: 48 hr 0 min 53 sec) 
 Total Blocks : 262144 Invalid Blocks : 0
Heartbeat CPU 0 instructions: 330000000 cycles: 221324538 heartbeat IPC: 1.11979 cumulative IPC: 0.967097 (Simulation time: 48 hr 9 min 14 sec) 
 Total Blocks : 262144 Invalid Blocks : 0
Heartbeat CPU 5 instructions: 330000000 cycles: 223172116 heartbeat IPC: 1.10845 cumulative IPC: 0.954017 (Simulation time: 48 hr 19 min 4 sec) 
 Total Blocks : 262144 Invalid Blocks : 0
Heartbeat CPU 6 instructions: 330000000 cycles: 223197538 heartbeat IPC: 1.11065 cumulative IPC: 0.953847 (Simulation time: 48 hr 19 min 12 sec) 
 Total Blocks : 262144 Invalid Blocks : 0
Heartbeat CPU 2 instructions: 330000000 cycles: 223201626 heartbeat IPC: 1.11237 cumulative IPC: 0.953786 (Simulation time: 48 hr 19 min 16 sec) 
 Total Blocks : 262144 Invalid Blocks : 0
Heartbeat CPU 3 instructions: 330000000 cycles: 223215634 heartbeat IPC: 1.11197 cumulative IPC: 0.953672 (Simulation time: 48 hr 19 min 31 sec) 
 Total Blocks : 262144 Invalid Blocks : 0
Heartbeat CPU 7 instructions: 330000000 cycles: 223239654 heartbeat IPC: 1.10901 cumulative IPC: 0.953641 (Simulation time: 48 hr 19 min 38 sec) 
 Total Blocks : 262144 Invalid Blocks : 0
Heartbeat CPU 1 instructions: 340000000 cycles: 229386136 heartbeat IPC: 0.981367 cumulative IPC: 0.982548 (Simulation time: 48 hr 54 min 7 sec) 
 Total Blocks : 262144 Invalid Blocks : 0
Heartbeat CPU 4 instructions: 340000000 cycles: 229945112 heartbeat IPC: 0.976108 cumulative IPC: 0.978745 (Simulation time: 48 hr 57 min 19 sec) 
 Total Blocks : 262144 Invalid Blocks : 0
Heartbeat CPU 0 instructions: 340000000 cycles: 231277241 heartbeat IPC: 1.00475 cumulative IPC: 0.969693 (Simulation time: 49 hr 5 min 6 sec) 
 Total Blocks : 262144 Invalid Blocks : 0
Heartbeat CPU 5 instructions: 340000000 cycles: 234844244 heartbeat IPC: 0.856742 cumulative IPC: 0.946341 (Simulation time: 49 hr 20 min 26 sec) 
 Total Blocks : 262144 Invalid Blocks : 0
Heartbeat CPU 6 instructions: 340000000 cycles: 234987613 heartbeat IPC: 0.848171 cumulative IPC: 0.945433 (Simulation time: 49 hr 21 min 1 sec) 
 Total Blocks : 262144 Invalid Blocks : 0
Heartbeat CPU 3 instructions: 340000000 cycles: 234995907 heartbeat IPC: 0.848877 cumulative IPC: 0.945335 (Simulation time: 49 hr 21 min 4 sec) 
 Total Blocks : 262144 Invalid Blocks : 0
Heartbeat CPU 7 instructions: 340000000 cycles: 235001764 heartbeat IPC: 0.850188 cumulative IPC: 0.945424 (Simulation time: 49 hr 21 min 5 sec) 
 Total Blocks : 262144 Invalid Blocks : 0
Heartbeat CPU 2 instructions: 340000000 cycles: 235004452 heartbeat IPC: 0.847255 cumulative IPC: 0.945295 (Simulation time: 49 hr 21 min 5 sec) 
 Total Blocks : 262144 Invalid Blocks : 0
Heartbeat CPU 1 instructions: 350000000 cycles: 239923100 heartbeat IPC: 0.94904 cumulative IPC: 0.980241 (Simulation time: 49 hr 44 min 28 sec) 
 Total Blocks : 262144 Invalid Blocks : 0
Heartbeat CPU 4 instructions: 350000000 cycles: 240474069 heartbeat IPC: 0.949762 cumulative IPC: 0.976758 (Simulation time: 49 hr 47 min 5 sec) 
 Total Blocks : 262144 Invalid Blocks : 0
Heartbeat CPU 0 instructions: 350000000 cycles: 241802884 heartbeat IPC: 0.950061 cumulative IPC: 0.968359 (Simulation time: 49 hr 53 min 24 sec) 
 Total Blocks : 262144 Invalid Blocks : 0
Heartbeat CPU 5 instructions: 350000000 cycles: 245370491 heartbeat IPC: 0.950006 cumulative IPC: 0.946585 (Simulation time: 50 hr 9 min 25 sec) 
 Total Blocks : 262144 Invalid Blocks : 0
Heartbeat CPU 6 instructions: 350000000 cycles: 245484770 heartbeat IPC: 0.952639 cumulative IPC: 0.94591 (Simulation time: 50 hr 9 min 55 sec) 
 Total Blocks : 262144 Invalid Blocks : 0
Heartbeat CPU 3 instructions: 350000000 cycles: 245492115 heartbeat IPC: 0.952725 cumulative IPC: 0.945825 (Simulation time: 50 hr 9 min 58 sec) 
 Total Blocks : 262144 Invalid Blocks : 0
Heartbeat CPU 2 instructions: 350000000 cycles: 245506409 heartbeat IPC: 0.952203 cumulative IPC: 0.945752 (Simulation time: 50 hr 10 min 2 sec) 
 Total Blocks : 262144 Invalid Blocks : 0
Heartbeat CPU 7 instructions: 350000000 cycles: 245526782 heartbeat IPC: 0.950117 cumulative IPC: 0.945735 (Simulation time: 50 hr 10 min 7 sec) 
 Total Blocks : 262144 Invalid Blocks : 0
Heartbeat CPU 1 instructions: 360000002 cycles: 250531950 heartbeat IPC: 0.942609 cumulative IPC: 0.977801 (Simulation time: 50 hr 37 min 30 sec) 
 Total Blocks : 262144 Invalid Blocks : 0
Heartbeat CPU 4 instructions: 360000002 cycles: 251087914 heartbeat IPC: 0.942166 cumulative IPC: 0.974522 (Simulation time: 50 hr 40 min 46 sec) 
 Total Blocks : 262144 Invalid Blocks : 0
Heartbeat CPU 0 instructions: 360000002 cycles: 252379857 heartbeat IPC: 0.94545 cumulative IPC: 0.966894 (Simulation time: 50 hr 48 min 39 sec) 
 Total Blocks : 262144 Invalid Blocks : 0
Heartbeat CPU 5 instructions: 360000002 cycles: 256643868 heartbeat IPC: 0.887046 cumulative IPC: 0.94263 (Simulation time: 51 hr 15 min 45 sec) 
 Total Blocks : 262144 Invalid Blocks : 0
Heartbeat CPU 6 instructions: 360000002 cycles: 256824593 heartbeat IPC: 0.881848 cumulative IPC: 0.941634 (Simulation time: 51 hr 17 min 10 sec) 
 Total Blocks : 262144 Invalid Blocks : 0
Heartbeat CPU 3 instructions: 360000002 cycles: 256873400 heartbeat IPC: 0.878636 cumulative IPC: 0.941325 (Simulation time: 51 hr 17 min 30 sec) 
 Total Blocks : 262144 Invalid Blocks : 0
Heartbeat CPU 7 instructions: 360000002 cycles: 256883773 heartbeat IPC: 0.880515 cumulative IPC: 0.941377 (Simulation time: 51 hr 17 min 37 sec) 
 Total Blocks : 262144 Invalid Blocks : 0
Heartbeat CPU 2 instructions: 360000002 cycles: 256885415 heartbeat IPC: 0.878812 cumulative IPC: 0.941271 (Simulation time: 51 hr 17 min 38 sec) 
 Total Blocks : 262144 Invalid Blocks : 0
Heartbeat CPU 1 instructions: 370000001 cycles: 260299639 heartbeat IPC: 1.02378 cumulative IPC: 0.980391 (Simulation time: 51 hr 41 min 53 sec) 
 Total Blocks : 262144 Invalid Blocks : 0
Heartbeat CPU 4 instructions: 370000001 cycles: 260800982 heartbeat IPC: 1.02954 cumulative IPC: 0.977595 (Simulation time: 51 hr 45 min 54 sec) 
 Total Blocks : 262144 Invalid Blocks : 0
Heartbeat CPU 0 instructions: 370000001 cycles: 262140948 heartbeat IPC: 1.02448 cumulative IPC: 0.970102 (Simulation time: 51 hr 55 min 5 sec) 
 Total Blocks : 262144 Invalid Blocks : 0
Heartbeat CPU 5 instructions: 370000001 cycles: 266031413 heartbeat IPC: 1.06524 cumulative IPC: 0.949056 (Simulation time: 52 hr 23 min 13 sec) 
 Total Blocks : 262144 Invalid Blocks : 0
Heartbeat CPU 6 instructions: 370000001 cycles: 266408038 heartbeat IPC: 1.04347 cumulative IPC: 0.947071 (Simulation time: 52 hr 26 min 0 sec) 
 Total Blocks : 262144 Invalid Blocks : 0
Heartbeat CPU 3 instructions: 370000001 cycles: 266415457 heartbeat IPC: 1.04799 cumulative IPC: 0.946995 (Simulation time: 52 hr 26 min 4 sec) 
 Total Blocks : 262144 Invalid Blocks : 0
Heartbeat CPU 7 instructions: 370000001 cycles: 266488205 heartbeat IPC: 1.04119 cumulative IPC: 0.946716 (Simulation time: 52 hr 26 min 31 sec) 
 Total Blocks : 262144 Invalid Blocks : 0
Heartbeat CPU 2 instructions: 370000001 cycles: 266495509 heartbeat IPC: 1.04057 cumulative IPC: 0.946585 (Simulation time: 52 hr 26 min 34 sec) 
 Total Blocks : 262144 Invalid Blocks : 0
Heartbeat CPU 1 instructions: 380000002 cycles: 269734678 heartbeat IPC: 1.05988 cumulative IPC: 0.984494 (Simulation time: 52 hr 50 min 31 sec) 
 Total Blocks : 262144 Invalid Blocks : 0
Heartbeat CPU 4 instructions: 380000002 cycles: 270148384 heartbeat IPC: 1.06982 cumulative IPC: 0.9823 (Simulation time: 52 hr 53 min 31 sec) 
 Total Blocks : 262144 Invalid Blocks : 0
Heartbeat CPU 0 instructions: 380000002 cycles: 271453376 heartbeat IPC: 1.07383 cumulative IPC: 0.975337 (Simulation time: 53 hr 3 min 14 sec) 
 Total Blocks : 262144 Invalid Blocks : 0
Heartbeat CPU 5 instructions: 380000002 cycles: 275275197 heartbeat IPC: 1.08181 cumulative IPC: 0.955571 (Simulation time: 53 hr 31 min 10 sec) 
 Total Blocks : 262144 Invalid Blocks : 0
Heartbeat CPU 6 instructions: 380000002 cycles: 275784803 heartbeat IPC: 1.06647 cumulative IPC: 0.952999 (Simulation time: 53 hr 35 min 2 sec) 
 Total Blocks : 262144 Invalid Blocks : 0
Heartbeat CPU 3 instructions: 380000002 cycles: 275798543 heartbeat IPC: 1.06575 cumulative IPC: 0.952895 (Simulation time: 53 hr 35 min 9 sec) 
 Total Blocks : 262144 Invalid Blocks : 0
Heartbeat CPU 2 instructions: 380000002 cycles: 275919711 heartbeat IPC: 1.0611 cumulative IPC: 0.952295 (Simulation time: 53 hr 35 min 53 sec) 
 Total Blocks : 262144 Invalid Blocks : 0
Heartbeat CPU 7 instructions: 380000002 cycles: 275950565 heartbeat IPC: 1.05682 cumulative IPC: 0.952227 (Simulation time: 53 hr 36 min 18 sec) 
 Total Blocks : 262144 Invalid Blocks : 0
Heartbeat CPU 1 instructions: 390000001 cycles: 278996497 heartbeat IPC: 1.0797 cumulative IPC: 0.989084 (Simulation time: 53 hr 58 min 49 sec) 
 Total Blocks : 262144 Invalid Blocks : 0
Heartbeat CPU 4 instructions: 390000001 cycles: 279487584 heartbeat IPC: 1.07076 cumulative IPC: 0.98659 (Simulation time: 54 hr 2 min 23 sec) 
 Total Blocks : 262144 Invalid Blocks : 0
Heartbeat CPU 0 instructions: 390000001 cycles: 280773378 heartbeat IPC: 1.07296 cumulative IPC: 0.98003 (Simulation time: 54 hr 11 min 48 sec) 
 Total Blocks : 262144 Invalid Blocks : 0
Heartbeat CPU 5 instructions: 390000003 cycles: 284551908 heartbeat IPC: 1.07797 cumulative IPC: 0.961317 (Simulation time: 54 hr 39 min 38 sec) 
 Total Blocks : 262144 Invalid Blocks : 0
Heartbeat CPU 6 instructions: 390000001 cycles: 285163885 heartbeat IPC: 1.0662 cumulative IPC: 0.958355 (Simulation time: 54 hr 44 min 7 sec) 
 Total Blocks : 262144 Invalid Blocks : 0
Heartbeat CPU 3 instructions: 390000001 cycles: 285178149 heartbeat IPC: 1.06614 cumulative IPC: 0.958253 (Simulation time: 54 hr 44 min 12 sec) 
 Total Blocks : 262144 Invalid Blocks : 0
Heartbeat CPU 2 instructions: 390000001 cycles: 285281124 heartbeat IPC: 1.06821 cumulative IPC: 0.957766 (Simulation time: 54 hr 44 min 49 sec) 
 Total Blocks : 262144 Invalid Blocks : 0
Heartbeat CPU 7 instructions: 390000003 cycles: 285345859 heartbeat IPC: 1.06436 cumulative IPC: 0.957537 (Simulation time: 54 hr 45 min 10 sec) 
 Total Blocks : 262144 Invalid Blocks : 0
Heartbeat CPU 1 instructions: 400000003 cycles: 288336403 heartbeat IPC: 1.07067 cumulative IPC: 0.992868 (Simulation time: 55 hr 6 min 35 sec) 
 Total Blocks : 262144 Invalid Blocks : 0
Finished CPU 1 instructions: 200000001 cycles: 201431367 cumulative IPC: 0.992894 (Simulation time: 55 hr 6 min 40 sec) 
Heartbeat CPU 4 instructions: 400000003 cycles: 288891068 heartbeat IPC: 1.06344 cumulative IPC: 0.990167 (Simulation time: 55 hr 10 min 26 sec) 
 Total Blocks : 262144 Invalid Blocks : 0
Finished CPU 4 instructions: 200000002 cycles: 201983275 cumulative IPC: 0.990181 (Simulation time: 55 hr 10 min 45 sec) 
Heartbeat CPU 0 instructions: 400000003 cycles: 290182345 heartbeat IPC: 1.06282 cumulative IPC: 0.983863 (Simulation time: 55 hr 19 min 34 sec) 
 Total Blocks : 262144 Invalid Blocks : 0
Finished CPU 0 instructions: 200000001 cycles: 203276260 cumulative IPC: 0.983883 (Simulation time: 55 hr 19 min 40 sec) 
Heartbeat CPU 5 instructions: 400000003 cycles: 293921096 heartbeat IPC: 1.06733 cumulative IPC: 0.966115 (Simulation time: 55 hr 45 min 35 sec) 
 Total Blocks : 262144 Invalid Blocks : 0
Finished CPU 5 instructions: 200000000 cycles: 207011919 cumulative IPC: 0.966128 (Simulation time: 55 hr 45 min 39 sec) 
Heartbeat CPU 6 instructions: 400000003 cycles: 294597821 heartbeat IPC: 1.06 cumulative IPC: 0.962972 (Simulation time: 55 hr 49 min 59 sec) 
 Total Blocks : 262144 Invalid Blocks : 0
Finished CPU 6 instructions: 200000000 cycles: 207688184 cumulative IPC: 0.962982 (Simulation time: 55 hr 50 min 4 sec) 
Heartbeat CPU 3 instructions: 400000003 cycles: 294616419 heartbeat IPC: 1.05952 cumulative IPC: 0.962854 (Simulation time: 55 hr 50 min 7 sec) 
 Total Blocks : 262144 Invalid Blocks : 0
Finished CPU 3 instructions: 200000000 cycles: 207712220 cumulative IPC: 0.962871 (Simulation time: 55 hr 50 min 13 sec) 
Heartbeat CPU 2 instructions: 400000003 cycles: 294691929 heartbeat IPC: 1.06261 cumulative IPC: 0.962514 (Simulation time: 55 hr 50 min 56 sec) 
 Total Blocks : 262144 Invalid Blocks : 0
Finished CPU 2 instructions: 200000002 cycles: 207784528 cumulative IPC: 0.962536 (Simulation time: 55 hr 51 min 1 sec) 
Heartbeat CPU 7 instructions: 400000003 cycles: 294771951 heartbeat IPC: 1.06089 cumulative IPC: 0.962223 (Simulation time: 55 hr 51 min 26 sec) 
 Total Blocks : 262144 Invalid Blocks : 0
Finished CPU 7 instructions: 200000001 cycles: 207851943 cumulative IPC: 0.962223 (Simulation time: 55 hr 51 min 26 sec) 

CPU 0 Branch Prediction Accuracy: 96.9759% MPKI: 4.36591 Average ROB Occupancy at Mispredict: 146.939

CPU 1 Branch Prediction Accuracy: 96.9711% MPKI: 4.36097 Average ROB Occupancy at Mispredict: 146.928

CPU 2 Branch Prediction Accuracy: 96.9941% MPKI: 4.364 Average ROB Occupancy at Mispredict: 147.594

CPU 3 Branch Prediction Accuracy: 96.9938% MPKI: 4.3643 Average ROB Occupancy at Mispredict: 147.596

CPU 4 Branch Prediction Accuracy: 96.9711% MPKI: 4.36551 Average ROB Occupancy at Mispredict: 146.941

CPU 5 Branch Prediction Accuracy: 96.9911% MPKI: 4.3652 Average ROB Occupancy at Mispredict: 147.54

CPU 6 Branch Prediction Accuracy: 96.994% MPKI: 4.36446 Average ROB Occupancy at Mispredict: 147.525

CPU 7 Branch Prediction Accuracy: 96.9943% MPKI: 4.36544 Average ROB Occupancy at Mispredict: 147.623

ChampSim completed all CPUs

Total Simulation Statistics (not including warmup)

CPU 0 cumulative IPC: 0.985417 instructions: 204820920 cycles: 207851943
ITLB TOTAL     ACCESS: 29221973  HIT: 29217031  MISS:  4942  HIT %: 99.9831  MISS %: 0.0169119  AVERAGE MISS PENALTY: 12.2264
ITLB LOAD      ACCESS: 29221973  HIT: 29217031  MISS:  4942  HIT %: 99.9831  MISS %: 0.0169119  AVERAGE MISS PENALTY: 12.2264
ITLB RFO       ACCESS:     0  HIT:     0  MISS:     0  HIT %:     0  MISS %:     0  AVERAGE MISS PENALTY: 0
ITLB PREFETCH  ACCESS:     0  HIT:     0  MISS:     0  HIT %:     0  MISS %:     0  AVERAGE MISS PENALTY: 0
ITLB WRITEBACK ACCESS:     0  HIT:     0  MISS:     0  HIT %:     0  MISS %:     0  AVERAGE MISS PENALTY: 0

DTLB TOTAL     ACCESS: 43664772  HIT: 43562815  MISS: 101957  HIT %: 99.7665  MISS %: 0.233499  AVERAGE MISS PENALTY: 21.3478
DTLB LOAD      ACCESS: 35044996  HIT: 34960951  MISS: 84045  HIT %: 99.7602  MISS %: 0.23982  AVERAGE MISS PENALTY: 19.6596
DTLB RFO       ACCESS: 8619776  HIT: 8601864  MISS: 17912  HIT %: 99.7922  MISS %: 0.207801  AVERAGE MISS PENALTY: 29.269
DTLB PREFETCH  ACCESS:     0  HIT:     0  MISS:     0  HIT %:     0  MISS %:     0  AVERAGE MISS PENALTY: 0
DTLB WRITEBACK ACCESS:     0  HIT:     0  MISS:     0  HIT %:     0  MISS %:     0  AVERAGE MISS PENALTY: 0

STLB TOTAL     ACCESS: 106899  HIT: 97095  MISS:  9804  HIT %: 90.8287  MISS %: 9.17127  AVERAGE MISS PENALTY: 100
STLB LOAD      ACCESS: 88987  HIT: 82776  MISS:  6211  HIT %: 93.0203  MISS %: 6.97967  AVERAGE MISS PENALTY: 100
STLB RFO       ACCESS: 17912  HIT: 14319  MISS:  3593  HIT %: 79.9408  MISS %: 20.0592  AVERAGE MISS PENALTY: 100
STLB PREFETCH  ACCESS:     0  HIT:     0  MISS:     0  HIT %:     0  MISS %:     0  AVERAGE MISS PENALTY: 0
STLB WRITEBACK ACCESS:     0  HIT:     0  MISS:     0  HIT %:     0  MISS %:     0  AVERAGE MISS PENALTY: 0

L1D TOTAL     ACCESS: 49337677  HIT: 45985801  MISS: 3351876  HIT %: 93.2063  MISS %: 6.79375  AVERAGE MISS PENALTY: 1.35467e+07
L1D LOAD      ACCESS: 26181121  HIT: 25677989  MISS: 503132  HIT %: 98.0783  MISS %: 1.92174  AVERAGE MISS PENALTY: 9.01769e+07
L1D RFO       ACCESS: 11076315  HIT: 10044602  MISS: 1031713  HIT %: 90.6854  MISS %: 9.31459  AVERAGE MISS PENALTY: 34726.4
L1D PREFETCH  ACCESS: 12080241  HIT: 10263210  MISS: 1817031  HIT %: 84.9587  MISS %: 15.0413  AVERAGE MISS PENALTY: 52.697
L1D WRITEBACK ACCESS:     0  HIT:     0  MISS:     0  HIT %:     0  MISS %:     0  AVERAGE MISS PENALTY: 0

L1I TOTAL     ACCESS: 42118548  HIT: 42000413  MISS: 118135  HIT %: 99.7195  MISS %: 0.280482  AVERAGE MISS PENALTY: 81.0703
L1I LOAD      ACCESS: 42118548  HIT: 42000413  MISS: 118135  HIT %: 99.7195  MISS %: 0.280482  AVERAGE MISS PENALTY: 81.0703
L1I RFO       ACCESS:     0  HIT:     0  MISS:     0  HIT %:     0  MISS %:     0  AVERAGE MISS PENALTY: 0
L1I PREFETCH  ACCESS:     0  HIT:     0  MISS:     0  HIT %:     0  MISS %:     0  AVERAGE MISS PENALTY: 0
L1I WRITEBACK ACCESS:     0  HIT:     0  MISS:     0  HIT %:     0  MISS %:     0  AVERAGE MISS PENALTY: 0

L2C TOTAL     ACCESS: 7098698  HIT: 5373356  MISS: 1725342  HIT %: 75.695  MISS %: 24.305  AVERAGE MISS PENALTY: 1.73291e+07
L2C LOAD      ACCESS: 571725  HIT: 236046  MISS: 335679  HIT %: 41.2866  MISS %: 58.7134  AVERAGE MISS PENALTY: 8.90501e+07
L2C RFO       ACCESS: 1031472  HIT: 490782  MISS: 540690  HIT %: 47.5807  MISS %: 52.4193  AVERAGE MISS PENALTY: 11573.4
L2C PREFETCH  ACCESS: 4115567  HIT: 3281782  MISS: 833785  HIT %: 79.7407  MISS %: 20.2593  AVERAGE MISS PENALTY: 193.375
L2C WRITEBACK ACCESS: 1379934  HIT: 1364746  MISS: 15188  HIT %: 98.8994  MISS %: 1.10063  AVERAGE MISS PENALTY: 0


LLC0 TOTAL     ACCESS: 306513  HIT: 192830  MISS: 113683  HIT %: 62.9109  MISS %: 37.0891  AVERAGE MISS PENALTY: 414.221
LLC0 LOAD      ACCESS: 34214  HIT: 21787  MISS: 12427  HIT %: 63.6786  MISS %: 36.3214  AVERAGE MISS PENALTY: 356.709
LLC0 RFO       ACCESS: 66812  HIT: 34628  MISS: 32184  HIT %: 51.829  MISS %: 48.171  AVERAGE MISS PENALTY: 649.88
LLC0 PREFETCH  ACCESS: 107818  HIT: 50528  MISS: 57290  HIT %: 46.8642  MISS %: 53.1358  AVERAGE MISS PENALTY: 379.496
LLC0 WRITEBACK ACCESS: 97669  HIT: 85887  MISS: 11782  HIT %: 87.9368  MISS %: 12.0632  AVERAGE MISS PENALTY: 0

LLC1 TOTAL     ACCESS: 312260  HIT: 198300  MISS: 113960  HIT %: 63.5048  MISS %: 36.4952  AVERAGE MISS PENALTY: 412.366
LLC1 LOAD      ACCESS: 28245  HIT: 20969  MISS:  7276  HIT %: 74.2397  MISS %: 25.7603  AVERAGE MISS PENALTY: 337.206
LLC1 RFO       ACCESS: 67231  HIT: 35064  MISS: 32167  HIT %: 52.1545  MISS %: 47.8455  AVERAGE MISS PENALTY: 637.074
LLC1 PREFETCH  ACCESS: 118033  HIT: 54839  MISS: 63194  HIT %: 46.4607  MISS %: 53.5393  AVERAGE MISS PENALTY: 380.525
LLC1 WRITEBACK ACCESS: 98751  HIT: 87428  MISS: 11323  HIT %: 88.5338  MISS %: 11.4662  AVERAGE MISS PENALTY: 0

LLC2 TOTAL     ACCESS: 313251  HIT: 200285  MISS: 112966  HIT %: 63.9375  MISS %: 36.0625  AVERAGE MISS PENALTY: 433.288
LLC2 LOAD      ACCESS: 24891  HIT: 19147  MISS:  5744  HIT %: 76.9234  MISS %: 23.0766  AVERAGE MISS PENALTY: 349.261
LLC2 RFO       ACCESS: 67088  HIT: 35102  MISS: 31986  HIT %: 52.3223  MISS %: 47.6777  AVERAGE MISS PENALTY: 680.164
LLC2 PREFETCH  ACCESS: 122706  HIT: 58142  MISS: 64564  HIT %: 47.3832  MISS %: 52.6168  AVERAGE MISS PENALTY: 390.078
LLC2 WRITEBACK ACCESS: 98566  HIT: 87894  MISS: 10672  HIT %: 89.1727  MISS %: 10.8273  AVERAGE MISS PENALTY: 0

LLC3 TOTAL     ACCESS: 316127  HIT: 202624  MISS: 113503  HIT %: 64.0958  MISS %: 35.9042  AVERAGE MISS PENALTY: 431.534
LLC3 LOAD      ACCESS: 23311  HIT: 18328  MISS:  4983  HIT %: 78.6238  MISS %: 21.3762  AVERAGE MISS PENALTY: 335.946
LLC3 RFO       ACCESS: 67945  HIT: 35807  MISS: 32138  HIT %:  52.7  MISS %:  47.3  AVERAGE MISS PENALTY: 667.401
LLC3 PREFETCH  ACCESS: 125477  HIT: 59584  MISS: 65893  HIT %: 47.486  MISS %: 52.514  AVERAGE MISS PENALTY: 392.416
LLC3 WRITEBACK ACCESS: 99394  HIT: 88905  MISS: 10489  HIT %: 89.447  MISS %: 10.553  AVERAGE MISS PENALTY: 0

LLC4 TOTAL     ACCESS: 312304  HIT: 198748  MISS: 113556  HIT %: 63.6393  MISS %: 36.3607  AVERAGE MISS PENALTY: 423.311
LLC4 LOAD      ACCESS: 22802  HIT: 17414  MISS:  5388  HIT %: 76.3705  MISS %: 23.6295  AVERAGE MISS PENALTY: 338.85
LLC4 RFO       ACCESS: 67712  HIT: 35450  MISS: 32262  HIT %: 52.3541  MISS %: 47.6459  AVERAGE MISS PENALTY: 660.639
LLC4 PREFETCH  ACCESS: 122832  HIT: 57475  MISS: 65357  HIT %: 46.7916  MISS %: 53.2084  AVERAGE MISS PENALTY: 381.447
LLC4 WRITEBACK ACCESS: 98958  HIT: 88409  MISS: 10549  HIT %: 89.3399  MISS %: 10.6601  AVERAGE MISS PENALTY: 0

LLC5 TOTAL     ACCESS: 315296  HIT: 201195  MISS: 114101  HIT %: 63.8115  MISS %: 36.1885  AVERAGE MISS PENALTY: 418.733
LLC5 LOAD      ACCESS: 23291  HIT: 18148  MISS:  5143  HIT %: 77.9185  MISS %: 22.0815  AVERAGE MISS PENALTY: 332.021
LLC5 RFO       ACCESS: 68217  HIT: 35873  MISS: 32344  HIT %: 52.5866  MISS %: 47.4134  AVERAGE MISS PENALTY: 647.857
LLC5 PREFETCH  ACCESS: 123725  HIT: 57635  MISS: 66090  HIT %: 46.5831  MISS %: 53.4169  AVERAGE MISS PENALTY: 380.028
LLC5 WRITEBACK ACCESS: 100063  HIT: 89539  MISS: 10524  HIT %: 89.4826  MISS %: 10.5174  AVERAGE MISS PENALTY: 0

LLC6 TOTAL     ACCESS: 312234  HIT: 198097  MISS: 114137  HIT %: 63.445  MISS %: 36.555  AVERAGE MISS PENALTY: 434.28
LLC6 LOAD      ACCESS: 22627  HIT: 17096  MISS:  5531  HIT %: 75.5558  MISS %: 24.4442  AVERAGE MISS PENALTY: 342.835
LLC6 RFO       ACCESS: 67732  HIT: 35273  MISS: 32459  HIT %: 52.0773  MISS %: 47.9227  AVERAGE MISS PENALTY: 685.106
LLC6 PREFETCH  ACCESS: 123076  HIT: 57655  MISS: 65421  HIT %: 46.845  MISS %: 53.155  AVERAGE MISS PENALTY: 388.763
LLC6 WRITEBACK ACCESS: 98799  HIT: 88073  MISS: 10726  HIT %: 89.1436  MISS %: 10.8564  AVERAGE MISS PENALTY: 0

LLC7 TOTAL     ACCESS: 313765  HIT: 199767  MISS: 113998  HIT %: 63.6677  MISS %: 36.3323  AVERAGE MISS PENALTY: 431.325
LLC7 LOAD      ACCESS: 22634  HIT: 17660  MISS:  4974  HIT %: 78.0242  MISS %: 21.9758  AVERAGE MISS PENALTY: 327.017
LLC7 RFO       ACCESS: 67910  HIT: 35608  MISS: 32302  HIT %: 52.4341  MISS %: 47.5659  AVERAGE MISS PENALTY: 673.419
LLC7 PREFETCH  ACCESS: 123788  HIT: 57790  MISS: 65998  HIT %: 46.6847  MISS %: 53.3153  AVERAGE MISS PENALTY: 390.782
LLC7 WRITEBACK ACCESS: 99433  HIT: 88709  MISS: 10724  HIT %: 89.2148  MISS %: 10.7852  AVERAGE MISS PENALTY: 0

Total Rob stall cycles : 	155992916
Total Load Rob Stall cycles : 	50181481
Average Rob Stall cycles : 	 4
Average Load Rob Stall cycles : 	 16

CPU 1 cumulative IPC: 0.995145 instructions: 206842798 cycles: 207851943
ITLB TOTAL     ACCESS: 29517881  HIT: 29512843  MISS:  5038  HIT %: 99.9829  MISS %: 0.0170676  AVERAGE MISS PENALTY: 12.1649
ITLB LOAD      ACCESS: 29517881  HIT: 29512843  MISS:  5038  HIT %: 99.9829  MISS %: 0.0170676  AVERAGE MISS PENALTY: 12.1649
ITLB RFO       ACCESS:     0  HIT:     0  MISS:     0  HIT %:     0  MISS %:     0  AVERAGE MISS PENALTY: 0
ITLB PREFETCH  ACCESS:     0  HIT:     0  MISS:     0  HIT %:     0  MISS %:     0  AVERAGE MISS PENALTY: 0
ITLB WRITEBACK ACCESS:     0  HIT:     0  MISS:     0  HIT %:     0  MISS %:     0  AVERAGE MISS PENALTY: 0

DTLB TOTAL     ACCESS: 44125424  HIT: 44022007  MISS: 103417  HIT %: 99.7656  MISS %: 0.234371  AVERAGE MISS PENALTY: 21.3819
DTLB LOAD      ACCESS: 35413961  HIT: 35328674  MISS: 85287  HIT %: 99.7592  MISS %: 0.240829  AVERAGE MISS PENALTY: 19.7532
DTLB RFO       ACCESS: 8711463  HIT: 8693333  MISS: 18130  HIT %: 99.7919  MISS %: 0.208117  AVERAGE MISS PENALTY: 29.0437
DTLB PREFETCH  ACCESS:     0  HIT:     0  MISS:     0  HIT %:     0  MISS %:     0  AVERAGE MISS PENALTY: 0
DTLB WRITEBACK ACCESS:     0  HIT:     0  MISS:     0  HIT %:     0  MISS %:     0  AVERAGE MISS PENALTY: 0

STLB TOTAL     ACCESS: 108455  HIT: 98550  MISS:  9905  HIT %: 90.8672  MISS %: 9.13282  AVERAGE MISS PENALTY: 100
STLB LOAD      ACCESS: 90325  HIT: 84018  MISS:  6307  HIT %: 93.0174  MISS %: 6.98256  AVERAGE MISS PENALTY: 100
STLB RFO       ACCESS: 18130  HIT: 14532  MISS:  3598  HIT %: 80.1544  MISS %: 19.8456  AVERAGE MISS PENALTY: 100
STLB PREFETCH  ACCESS:     0  HIT:     0  MISS:     0  HIT %:     0  MISS %:     0  AVERAGE MISS PENALTY: 0
STLB WRITEBACK ACCESS:     0  HIT:     0  MISS:     0  HIT %:     0  MISS %:     0  AVERAGE MISS PENALTY: 0

L1D TOTAL     ACCESS: 49922732  HIT: 46524575  MISS: 3398157  HIT %: 93.1932  MISS %: 6.80683  AVERAGE MISS PENALTY: 1.3704e+07
L1D LOAD      ACCESS: 26496537  HIT: 25986195  MISS: 510342  HIT %: 98.0739  MISS %: 1.92607  AVERAGE MISS PENALTY: 9.11897e+07
L1D RFO       ACCESS: 11235222  HIT: 10192811  MISS: 1042411  HIT %: 90.7219  MISS %: 9.27806  AVERAGE MISS PENALTY: 29094.5
L1D PREFETCH  ACCESS: 12190973  HIT: 10345569  MISS: 1845404  HIT %: 84.8625  MISS %: 15.1375  AVERAGE MISS PENALTY: 51.5423
L1D WRITEBACK ACCESS:     0  HIT:     0  MISS:     0  HIT %:     0  MISS %:     0  AVERAGE MISS PENALTY: 0

L1I TOTAL     ACCESS: 42529266  HIT: 42408653  MISS: 120613  HIT %: 99.7164  MISS %: 0.2836  AVERAGE MISS PENALTY: 78.8664
L1I LOAD      ACCESS: 42529266  HIT: 42408653  MISS: 120613  HIT %: 99.7164  MISS %: 0.2836  AVERAGE MISS PENALTY: 78.8664
L1I RFO       ACCESS:     0  HIT:     0  MISS:     0  HIT %:     0  MISS %:     0  AVERAGE MISS PENALTY: 0
L1I PREFETCH  ACCESS:     0  HIT:     0  MISS:     0  HIT %:     0  MISS %:     0  AVERAGE MISS PENALTY: 0
L1I WRITEBACK ACCESS:     0  HIT:     0  MISS:     0  HIT %:     0  MISS %:     0  AVERAGE MISS PENALTY: 0

L2C TOTAL     ACCESS: 7197840  HIT: 5535858  MISS: 1661982  HIT %: 76.91  MISS %: 23.09  AVERAGE MISS PENALTY: 1.83077e+07
L2C LOAD      ACCESS: 579086  HIT: 245719  MISS: 333367  HIT %: 42.4322  MISS %: 57.5678  AVERAGE MISS PENALTY: 9.12558e+07
L2C RFO       ACCESS: 1042179  HIT: 544474  MISS: 497705  HIT %: 52.2438  MISS %: 47.7562  AVERAGE MISS PENALTY: 10594.3
L2C PREFETCH  ACCESS: 4181039  HIT: 3355001  MISS: 826038  HIT %: 80.2432  MISS %: 19.7568  AVERAGE MISS PENALTY: 193.633
L2C WRITEBACK ACCESS: 1395536  HIT: 1390664  MISS:  4872  HIT %: 99.6509  MISS %: 0.349113  AVERAGE MISS PENALTY: 0


LLC0 TOTAL     ACCESS: 294267  HIT: 179523  MISS: 114744  HIT %: 61.0068  MISS %: 38.9932  AVERAGE MISS PENALTY: 397.755
LLC0 LOAD      ACCESS: 33993  HIT: 21363  MISS: 12630  HIT %: 62.8453  MISS %: 37.1547  AVERAGE MISS PENALTY: 341.908
LLC0 RFO       ACCESS: 61714  HIT: 29409  MISS: 32305  HIT %: 47.6537  MISS %: 52.3463  AVERAGE MISS PENALTY: 617.257
LLC0 PREFETCH  ACCESS: 106717  HIT: 48387  MISS: 58330  HIT %: 45.3414  MISS %: 54.6586  AVERAGE MISS PENALTY: 366.556
LLC0 WRITEBACK ACCESS: 91843  HIT: 80364  MISS: 11479  HIT %: 87.5015  MISS %: 12.4985  AVERAGE MISS PENALTY: 0

LLC1 TOTAL     ACCESS: 300712  HIT: 186304  MISS: 114408  HIT %: 61.9543  MISS %: 38.0457  AVERAGE MISS PENALTY: 395.083
LLC1 LOAD      ACCESS: 27782  HIT: 20648  MISS:  7134  HIT %: 74.3215  MISS %: 25.6785  AVERAGE MISS PENALTY: 322.984
LLC1 RFO       ACCESS: 62625  HIT: 30396  MISS: 32229  HIT %: 48.5365  MISS %: 51.4635  AVERAGE MISS PENALTY: 595.28
LLC1 PREFETCH  ACCESS: 117055  HIT: 52863  MISS: 64192  HIT %: 45.1608  MISS %: 54.8392  AVERAGE MISS PENALTY: 369.379
LLC1 WRITEBACK ACCESS: 93250  HIT: 82397  MISS: 10853  HIT %: 88.3614  MISS %: 11.6386  AVERAGE MISS PENALTY: 0

LLC2 TOTAL     ACCESS: 301881  HIT: 188336  MISS: 113545  HIT %: 62.3875  MISS %: 37.6125  AVERAGE MISS PENALTY: 418.754
LLC2 LOAD      ACCESS: 24227  HIT: 18336  MISS:  5891  HIT %: 75.6842  MISS %: 24.3158  AVERAGE MISS PENALTY: 340.315
LLC2 RFO       ACCESS: 62328  HIT: 30301  MISS: 32027  HIT %: 48.6154  MISS %: 51.3846  AVERAGE MISS PENALTY: 647.914
LLC2 PREFETCH  ACCESS: 122105  HIT: 56562  MISS: 65543  HIT %: 46.3224  MISS %: 53.6776  AVERAGE MISS PENALTY: 378.254
LLC2 WRITEBACK ACCESS: 93221  HIT: 83137  MISS: 10084  HIT %: 89.1827  MISS %: 10.8173  AVERAGE MISS PENALTY: 0

LLC3 TOTAL     ACCESS: 302685  HIT: 188510  MISS: 114175  HIT %: 62.2793  MISS %: 37.7207  AVERAGE MISS PENALTY: 412.82
LLC3 LOAD      ACCESS: 22690  HIT: 17619  MISS:  5071  HIT %: 77.6509  MISS %: 22.3491  AVERAGE MISS PENALTY: 328.701
LLC3 RFO       ACCESS: 62084  HIT: 29922  MISS: 32162  HIT %: 48.196  MISS %: 51.804  AVERAGE MISS PENALTY: 622.788
[...]
 TIMELY PREFETCHES:      14860 LATE PREFETCHES: 0 DROPPED PREFETCHES: 0
LLC1 AVERAGE MISS LATENCY: 501.232 cycles
LLC2 TOTAL     ACCESS: 325084  HIT: 214760  MISS: 110324  HIT %: 66.0629  MISS %: 33.9371  AVERAGE MISS PENALTY: 514.269
LLC2 LOAD      ACCESS: 23075  HIT: 17449  MISS:  5626  HIT %: 75.6186  MISS %: 24.3814  AVERAGE MISS PENALTY: 374.589
LLC2 RFO       ACCESS: 75392  HIT: 43337  MISS: 32055  HIT %: 57.4822  MISS %: 42.5178  AVERAGE MISS PENALTY: 916.669
LLC2 PREFETCH  ACCESS: 122093  HIT: 59585  MISS: 62508  HIT %: 48.803  MISS %: 51.197  AVERAGE MISS PENALTY: 403.867
LLC2 WRITEBACK ACCESS: 104524  HIT: 94389  MISS: 10135  HIT %: 90.3037  MISS %: 9.69634  AVERAGE MISS PENALTY: 0
LLC2 PREFETCH  REQUESTED:     0  ISSUED:     0  USEFUL: 14732  USELESS: 496056
 USEFUL LOAD PREFETCHES:      14732 PREFETCH ISSUED TO LOWER LEVEL:     628195  ACCURACY: 2.34513
 TIMELY PREFETCHES:      14732 LATE PREFETCHES: 0 DROPPED PREFETCHES: 0
LLC2 AVERAGE MISS LATENCY: 514.269 cycles
LLC3 TOTAL     ACCESS: 326267  HIT: 215615  MISS: 110652  HIT %: 66.0854  MISS %: 33.9146  AVERAGE MISS PENALTY: 523.448
LLC3 LOAD      ACCESS: 21847  HIT: 17126  MISS:  4721  HIT %: 78.3906  MISS %: 21.6094  AVERAGE MISS PENALTY: 357.473
LLC3 RFO       ACCESS: 75533  HIT: 43356  MISS: 32177  HIT %: 57.4001  MISS %: 42.5999  AVERAGE MISS PENALTY: 939.223
LLC3 PREFETCH  ACCESS: 124205  HIT: 60439  MISS: 63766  HIT %: 48.6607  MISS %: 51.3393  AVERAGE MISS PENALTY: 407.922
LLC3 WRITEBACK ACCESS: 104682  HIT: 94694  MISS:  9988  HIT %: 90.4587  MISS %: 9.54128  AVERAGE MISS PENALTY: 0
LLC3 PREFETCH  REQUESTED:     0  ISSUED:     0  USEFUL: 13674  USELESS: 506110
 USEFUL LOAD PREFETCHES:      13674 PREFETCH ISSUED TO LOWER LEVEL:     581268  ACCURACY: 2.35244
 TIMELY PREFETCHES:      13674 LATE PREFETCHES: 0 DROPPED PREFETCHES: 0
LLC3 AVERAGE MISS LATENCY: 523.448 cycles
LLC4 TOTAL     ACCESS: 324011  HIT: 213333  MISS: 110678  HIT %: 65.8413  MISS %: 34.1587  AVERAGE MISS PENALTY: 498.699
LLC4 LOAD      ACCESS: 21324  HIT: 16140  MISS:  5184  HIT %: 75.6894  MISS %: 24.3106  AVERAGE MISS PENALTY: 356.115
LLC4 RFO       ACCESS: 75408  HIT: 43047  MISS: 32361  HIT %: 57.0855  MISS %: 42.9145  AVERAGE MISS PENALTY: 882.308
LLC4 PREFETCH  ACCESS: 122937  HIT: 59879  MISS: 63058  HIT %: 48.7071  MISS %: 51.2929  AVERAGE MISS PENALTY: 393.234
LLC4 WRITEBACK ACCESS: 104342  HIT: 94267  MISS: 10075  HIT %: 90.3443  MISS %: 9.65575  AVERAGE MISS PENALTY: 0
LLC4 PREFETCH  REQUESTED:     0  ISSUED:     0  USEFUL: 15808  USELESS: 498566
 USEFUL LOAD PREFETCHES:      15808 PREFETCH ISSUED TO LOWER LEVEL:     662442  ACCURACY: 2.38632
 TIMELY PREFETCHES:      15808 LATE PREFETCHES: 0 DROPPED PREFETCHES: 0
LLC4 AVERAGE MISS LATENCY: 498.699 cycles
LLC5 TOTAL     ACCESS: 327518  HIT: 216332  MISS: 111186  HIT %: 66.0519  MISS %: 33.9481  AVERAGE MISS PENALTY: 506.999
LLC5 LOAD      ACCESS: 22227  HIT: 17339  MISS:  4888  HIT %: 78.0087  MISS %: 21.9913  AVERAGE MISS PENALTY: 352.498
LLC5 RFO       ACCESS: 76222  HIT: 43857  MISS: 32365  HIT %: 57.5385  MISS %: 42.4615  AVERAGE MISS PENALTY: 917.909
LLC5 PREFETCH  ACCESS: 123590  HIT: 59907  MISS: 63683  HIT %: 48.4724  MISS %: 51.5276  AVERAGE MISS PENALTY: 391.629
LLC5 WRITEBACK ACCESS: 105479  HIT: 95229  MISS: 10250  HIT %: 90.2824  MISS %: 9.71757  AVERAGE MISS PENALTY: 0
LLC5 PREFETCH  REQUESTED:     0  ISSUED:     0  USEFUL: 14118  USELESS: 505983
 USEFUL LOAD PREFETCHES:      14118 PREFETCH ISSUED TO LOWER LEVEL:     616778  ACCURACY: 2.28899
 TIMELY PREFETCHES:      14118 LATE PREFETCHES: 0 DROPPED PREFETCHES: 0
LLC5 AVERAGE MISS LATENCY: 506.999 cycles
LLC6 TOTAL     ACCESS: 324953  HIT: 213519  MISS: 111434  HIT %: 65.7077  MISS %: 34.2923  AVERAGE MISS PENALTY: 515.15
LLC6 LOAD      ACCESS: 21051  HIT: 15641  MISS:  5410  HIT %: 74.3005  MISS %: 25.6995  AVERAGE MISS PENALTY: 364.209
LLC6 RFO       ACCESS: 76274  HIT: 43800  MISS: 32474  HIT %: 57.4245  MISS %: 42.5755  AVERAGE MISS PENALTY: 921.261
LLC6 PREFETCH  ACCESS: 123063  HIT: 59715  MISS: 63348  HIT %: 48.5239  MISS %: 51.4761  AVERAGE MISS PENALTY: 402.819
LLC6 WRITEBACK ACCESS: 104565  HIT: 94363  MISS: 10202  HIT %: 90.2434  MISS %: 9.75661  AVERAGE MISS PENALTY: 0
LLC6 PREFETCH  REQUESTED:     0  ISSUED:     0  USEFUL: 14321  USELESS: 502675
 USEFUL LOAD PREFETCHES:      14321 PREFETCH ISSUED TO LOWER LEVEL:     698863  ACCURACY: 2.04919
 TIMELY PREFETCHES:      14321 LATE PREFETCHES: 0 DROPPED PREFETCHES: 0
LLC6 AVERAGE MISS LATENCY: 515.15 cycles
LLC7 TOTAL     ACCESS: 325556  HIT: 214172  MISS: 111384  HIT %: 65.7865  MISS %: 34.2135  AVERAGE MISS PENALTY: 522.097
LLC7 LOAD      ACCESS: 20791  HIT: 16074  MISS:  4717  HIT %: 77.3123  MISS %: 22.6877  AVERAGE MISS PENALTY: 349.454
LLC7 RFO       ACCESS: 76304  HIT: 43963  MISS: 32341  HIT %: 57.6156  MISS %: 42.3844  AVERAGE MISS PENALTY: 948.13
LLC7 PREFETCH  ACCESS: 123432  HIT: 59482  MISS: 63950  HIT %: 48.1901  MISS %: 51.8099  AVERAGE MISS PENALTY: 404.088
LLC7 WRITEBACK ACCESS: 105029  HIT: 94653  MISS: 10376  HIT %: 90.1208  MISS %: 9.87918  AVERAGE MISS PENALTY: 0
LLC7 PREFETCH  REQUESTED:     0  ISSUED:     0  USEFUL: 13525  USELESS: 508326
 USEFUL LOAD PREFETCHES:      13525 PREFETCH ISSUED TO LOWER LEVEL:     610017  ACCURACY: 2.21715
 TIMELY PREFETCHES:      13525 LATE PREFETCHES: 0 DROPPED PREFETCHES: 0
LLC7 AVERAGE MISS LATENCY: 522.097 cycles
ROI Average ROB Stall Cycles:	4.79933
ROI Total ROB Stalls Cycles:	153510846
ROI TOTAL ROB counter      :	31985918
ROI Average Load ROB Stall Cycles:	17.184
ROI Total Load ROB Stalls Cycle  :	50372319
ROI Total Load ROB stalls Counter:	2931348
Major fault: 0 Minor fault: 13492

CPU 7 cumulative IPC: 0.962223 instructions: 200000001 cycles: 207851943
ITLB TOTAL     ACCESS: 28542842  HIT: 28538135  MISS:  4707  HIT %: 99.9835  MISS %: 0.016491  AVERAGE MISS PENALTY: 12.3875
ITLB LOAD      ACCESS: 28542842  HIT: 28538135  MISS:  4707  HIT %: 99.9835  MISS %: 0.016491  AVERAGE MISS PENALTY: 12.3875
ITLB RFO       ACCESS:     0  HIT:     0  MISS:     0  HIT %:     0  MISS %:     0  AVERAGE MISS PENALTY: 0
ITLB PREFETCH  ACCESS:     0  HIT:     0  MISS:     0  HIT %:     0  MISS %:     0  AVERAGE MISS PENALTY: 0
ITLB WRITEBACK ACCESS:     0  HIT:     0  MISS:     0  HIT %:     0  MISS %:     0  AVERAGE MISS PENALTY: 0
ITLB PREFETCH  REQUESTED:     0  ISSUED:     0  USEFUL:     0  USELESS:     0
 USEFUL LOAD PREFETCHES:          0 PREFETCH ISSUED TO LOWER LEVEL:          0  ACCURACY: -nan
 TIMELY PREFETCHES:          0 LATE PREFETCHES: 0 DROPPED PREFETCHES: 0
ITLB AVERAGE MISS LATENCY: 12.3875 cycles
DTLB TOTAL     ACCESS: 42558924  HIT: 42460824  MISS: 98100  HIT %: 99.7695  MISS %: 0.230504  AVERAGE MISS PENALTY: 21.5789
DTLB LOAD      ACCESS: 34152649  HIT: 34072003  MISS: 80646  HIT %: 99.7639  MISS %: 0.236134  AVERAGE MISS PENALTY: 19.8217
DTLB RFO       ACCESS: 8406275  HIT: 8388821  MISS: 17454  HIT %: 99.7924  MISS %: 0.207631  AVERAGE MISS PENALTY: 29.698
DTLB PREFETCH  ACCESS:     0  HIT:     0  MISS:     0  HIT %:     0  MISS %:     0  AVERAGE MISS PENALTY: 0
DTLB WRITEBACK ACCESS:     0  HIT:     0  MISS:     0  HIT %:     0  MISS %:     0  AVERAGE MISS PENALTY: 0
DTLB PREFETCH  REQUESTED:     0  ISSUED:     0  USEFUL:     0  USELESS:     0
 USEFUL LOAD PREFETCHES:          0 PREFETCH ISSUED TO LOWER LEVEL:          0  ACCURACY: -nan
 TIMELY PREFETCHES:          0 LATE PREFETCHES: 0 DROPPED PREFETCHES: 0
DTLB AVERAGE MISS LATENCY: 21.5789 cycles
STLB TOTAL     ACCESS: 102807  HIT: 93224  MISS:  9583  HIT %: 90.6787  MISS %: 9.32135  AVERAGE MISS PENALTY: 100
STLB LOAD      ACCESS: 85353  HIT: 79349  MISS:  6004  HIT %: 92.9657  MISS %: 7.03432  AVERAGE MISS PENALTY: 100
STLB RFO       ACCESS: 17454  HIT: 13875  MISS:  3579  HIT %: 79.4947  MISS %: 20.5053  AVERAGE MISS PENALTY: 100
STLB PREFETCH  ACCESS:     0  HIT:     0  MISS:     0  HIT %:     0  MISS %:     0  AVERAGE MISS PENALTY: 0
STLB WRITEBACK ACCESS:     0  HIT:     0  MISS:     0  HIT %:     0  MISS %:     0  AVERAGE MISS PENALTY: 0
STLB PREFETCH  REQUESTED:     0  ISSUED:     0  USEFUL:     0  USELESS:     0
 USEFUL LOAD PREFETCHES:          0 PREFETCH ISSUED TO LOWER LEVEL:          0  ACCURACY: -nan
 TIMELY PREFETCHES:          0 LATE PREFETCHES: 0 DROPPED PREFETCHES: 0
STLB AVERAGE MISS LATENCY: 100 cycles
L1D TOTAL     ACCESS: 47755493  HIT: 44511958  MISS: 3243535  HIT %: 93.208  MISS %: 6.79196  AVERAGE MISS PENALTY: 1.37791e+07
L1D LOAD      ACCESS: 25444375  HIT: 24946342  MISS: 498033  HIT %: 98.0427  MISS %: 1.95734  AVERAGE MISS PENALTY: 8.96593e+07
L1D RFO       ACCESS: 10634982  HIT: 9628715  MISS: 1006267  HIT %: 90.5381  MISS %: 9.46186  AVERAGE MISS PENALTY: 39336
L1D PREFETCH  ACCESS: 11676136  HIT: 9936901  MISS: 1739235  HIT %: 85.1044  MISS %: 14.8956  AVERAGE MISS PENALTY: 54.9126
L1D WRITEBACK ACCESS:     0  HIT:     0  MISS:     0  HIT %:     0  MISS %:     0  AVERAGE MISS PENALTY: 0
L1D PREFETCH  REQUESTED: 13363324  ISSUED: 12816196  USEFUL: 1529263  USELESS: 209985
 USEFUL LOAD PREFETCHES:    1529263 PREFETCH ISSUED TO LOWER LEVEL:   10423439  ACCURACY: 14.6714
 TIMELY PREFETCHES:    1529263 LATE PREFETCHES: 295261 DROPPED PREFETCHES: 547128
L1D AVERAGE MISS LATENCY: 12252.2 cycles
L1I TOTAL     ACCESS: 41190475  HIT: 41077829  MISS: 112646  HIT %: 99.7265  MISS %: 0.273476  AVERAGE MISS PENALTY: 82.2933
L1I LOAD      ACCESS: 41190475  HIT: 41077829  MISS: 112646  HIT %: 99.7265  MISS %: 0.273476  AVERAGE MISS PENALTY: 82.2933
L1I RFO       ACCESS:     0  HIT:     0  MISS:     0  HIT %:     0  MISS %:     0  AVERAGE MISS PENALTY: 0
L1I PREFETCH  ACCESS:     0  HIT:     0  MISS:     0  HIT %:     0  MISS %:     0  AVERAGE MISS PENALTY: 0
L1I WRITEBACK ACCESS:     0  HIT:     0  MISS:     0  HIT %:     0  MISS %:     0  AVERAGE MISS PENALTY: 0
L1I PREFETCH  REQUESTED:     0  ISSUED:     0  USEFUL:     0  USELESS:     0
 USEFUL LOAD PREFETCHES:          0 PREFETCH ISSUED TO LOWER LEVEL:          0  ACCURACY: -nan
 TIMELY PREFETCHES:          0 LATE PREFETCHES: 0 DROPPED PREFETCHES: 0
L1I AVERAGE MISS LATENCY: 82.2933 cycles
L2C TOTAL     ACCESS: 6839344  HIT: 4814424  MISS: 2024920  HIT %: 70.3931  MISS %: 29.6069  AVERAGE MISS PENALTY: 1.46986e+07
L2C LOAD      ACCESS: 560089  HIT: 222998  MISS: 337091  HIT %: 39.8147  MISS %: 60.1853  AVERAGE MISS PENALTY: 8.82775e+07
L2C RFO       ACCESS: 1005997  HIT: 339224  MISS: 666773  HIT %: 33.7202  MISS %: 66.2798  AVERAGE MISS PENALTY: 8669.94
L2C PREFETCH  ACCESS: 3931575  HIT: 2987870  MISS: 943705  HIT %: 75.9968  MISS %: 24.0032  AVERAGE MISS PENALTY: 172.928
L2C WRITEBACK ACCESS: 1341683  HIT: 1264332  MISS: 77351  HIT %: 94.2348  MISS %: 5.76522  AVERAGE MISS PENALTY: 0
L2C PREFETCH  REQUESTED: 3493834  ISSUED: 3490200  USEFUL: 86943  USELESS: 857868
 USEFUL LOAD PREFETCHES:      86943 PREFETCH ISSUED TO LOWER LEVEL:    1557843  ACCURACY: 5.58099
 TIMELY PREFETCHES:      86943 LATE PREFETCHES: 255507 DROPPED PREFETCHES: 3634
L2C AVERAGE MISS LATENCY: 240.293 cycles
LLC0 TOTAL     ACCESS: 354736  HIT: 243630  MISS: 111106  HIT %: 68.6792  MISS %: 31.3208  AVERAGE MISS PENALTY: 487.265
LLC0 LOAD      ACCESS: 36023  HIT: 23844  MISS: 12179  HIT %: 66.191  MISS %: 33.809  AVERAGE MISS PENALTY: 373.203
LLC0 RFO       ACCESS: 82936  HIT: 50711  MISS: 32225  HIT %: 61.1447  MISS %: 38.8553  AVERAGE MISS PENALTY: 874.085
LLC0 PREFETCH  ACCESS: 120248  HIT: 64930  MISS: 55318  HIT %: 53.9967  MISS %: 46.0033  AVERAGE MISS PENALTY: 387.315
LLC0 WRITEBACK ACCESS: 115529  HIT: 104145  MISS: 11384  HIT %: 90.1462  MISS %: 9.8538  AVERAGE MISS PENALTY: 0
LLC0 PREFETCH  REQUESTED:     0  ISSUED:     0  USEFUL: 13917  USELESS: 438309
 USEFUL LOAD PREFETCHES:      13917 PREFETCH ISSUED TO LOWER LEVEL:     538745  ACCURACY: 2.58323
 TIMELY PREFETCHES:      13917 LATE PREFETCHES: 0 DROPPED PREFETCHES: 0
LLC0 AVERAGE MISS LATENCY: 487.265 cycles
Deadblocks : 77996 Deadblock percentage : 640.414

LLC1 TOTAL     ACCESS: 360853  HIT: 250053  MISS: 110800  HIT %: 69.295  MISS %: 30.705  AVERAGE MISS PENALTY: 498.296
LLC1 LOAD      ACCESS: 28623  HIT: 21842  MISS:  6781  HIT %: 76.3093  MISS %: 23.6907  AVERAGE MISS PENALTY: 354.627
LLC1 RFO       ACCESS: 83691  HIT: 51449  MISS: 32242  HIT %: 61.4749  MISS %: 38.5251  AVERAGE MISS PENALTY: 900.784
LLC1 PREFETCH  ACCESS: 131187  HIT: 70085  MISS: 61102  HIT %: 53.4237  MISS %: 46.5763  AVERAGE MISS PENALTY: 388.915
LLC1 WRITEBACK ACCESS: 117352  HIT: 106677  MISS: 10675  HIT %: 90.9034  MISS %: 9.09656  AVERAGE MISS PENALTY: 0
LLC1 PREFETCH  REQUESTED:     0  ISSUED:     0  USEFUL: 14860  USELESS: 485101
 USEFUL LOAD PREFETCHES:      14860 PREFETCH ISSUED TO LOWER LEVEL:     556180  ACCURACY: 2.6718
 TIMELY PREFETCHES:      14860 LATE PREFETCHES: 0 DROPPED PREFETCHES: 0
LLC1 AVERAGE MISS LATENCY: 498.296 cycles
LLC2 TOTAL     ACCESS: 360520  HIT: 250095  MISS: 110425  HIT %: 69.3706  MISS %: 30.6294  AVERAGE MISS PENALTY: 512.103
LLC2 LOAD      ACCESS: 24597  HIT: 18950  MISS:  5647  HIT %: 77.0419  MISS %: 22.9581  AVERAGE MISS PENALTY: 376.174
LLC2 RFO       ACCESS: 83226  HIT: 51024  MISS: 32202  HIT %: 61.3078  MISS %: 38.6922  AVERAGE MISS PENALTY: 912.945
LLC2 PREFETCH  ACCESS: 135555  HIT: 73092  MISS: 62463  HIT %: 53.9205  MISS %: 46.0795  AVERAGE MISS PENALTY: 400.654
LLC2 WRITEBACK ACCESS: 117142  HIT: 107029  MISS: 10113  HIT %: 91.3669  MISS %: 8.63311  AVERAGE MISS PENALTY: 0
LLC2 PREFETCH  REQUESTED:     0  ISSUED:     0  USEFUL: 14732  USELESS: 496056
 USEFUL LOAD PREFETCHES:      14732 PREFETCH ISSUED TO LOWER LEVEL:     628195  ACCURACY: 2.34513
 TIMELY PREFETCHES:      14732 LATE PREFETCHES: 0 DROPPED PREFETCHES: 0
LLC2 AVERAGE MISS LATENCY: 512.103 cycles
LLC3 TOTAL     ACCESS: 361544  HIT: 250937  MISS: 110607  HIT %: 69.407  MISS %: 30.593  AVERAGE MISS PENALTY: 521.319
LLC3 LOAD      ACCESS: 22930  HIT: 18068  MISS:  4862  HIT %: 78.7963  MISS %: 21.2037  AVERAGE MISS PENALTY: 363.516
LLC3 RFO       ACCESS: 83254  HIT: 50974  MISS: 32280  HIT %: 61.2271  MISS %: 38.7729  AVERAGE MISS PENALTY: 938.508
LLC3 PREFETCH  ACCESS: 138354  HIT: 74842  MISS: 63512  HIT %: 54.0946  MISS %: 45.9054  AVERAGE MISS PENALTY: 403.06
LLC3 WRITEBACK ACCESS: 117006  HIT: 107053  MISS:  9953  HIT %: 91.4936  MISS %: 8.5064  AVERAGE MISS PENALTY: 0
LLC3 PREFETCH  REQUESTED:     0  ISSUED:     0  USEFUL: 13674  USELESS: 506110
 USEFUL LOAD PREFETCHES:      13674 PREFETCH ISSUED TO LOWER LEVEL:     581268  ACCURACY: 2.35244
 TIMELY PREFETCHES:      13674 LATE PREFETCHES: 0 DROPPED PREFETCHES: 0
LLC3 AVERAGE MISS LATENCY: 521.319 cycles
LLC4 TOTAL     ACCESS: 359090  HIT: 248645  MISS: 110445  HIT %: 69.2431  MISS %: 30.7569  AVERAGE MISS PENALTY: 499.378
LLC4 LOAD      ACCESS: 23249  HIT: 18062  MISS:  5187  HIT %: 77.6894  MISS %: 22.3106  AVERAGE MISS PENALTY: 363.027
LLC4 RFO       ACCESS: 82485  HIT: 50060  MISS: 32425  HIT %: 60.6898  MISS %: 39.3102  AVERAGE MISS PENALTY: 889.305
LLC4 PREFETCH  ACCESS: 137267  HIT: 74436  MISS: 62831  HIT %: 54.2272  MISS %: 45.7728  AVERAGE MISS PENALTY: 388.901
LLC4 WRITEBACK ACCESS: 116089  HIT: 106087  MISS: 10002  HIT %: 91.3842  MISS %: 8.6158  AVERAGE MISS PENALTY: 0
LLC4 PREFETCH  REQUESTED:     0  ISSUED:     0  USEFUL: 15808  USELESS: 498566
 USEFUL LOAD PREFETCHES:      15808 PREFETCH ISSUED TO LOWER LEVEL:     662442  ACCURACY: 2.38632
 TIMELY PREFETCHES:      15808 LATE PREFETCHES: 0 DROPPED PREFETCHES: 0
LLC4 AVERAGE MISS LATENCY: 499.378 cycles
LLC5 TOTAL     ACCESS: 363619  HIT: 252483  MISS: 111136  HIT %: 69.4361  MISS %: 30.5639  AVERAGE MISS PENALTY: 506.476
LLC5 LOAD      ACCESS: 24667  HIT: 19696  MISS:  4971  HIT %: 79.8476  MISS %: 20.1524  AVERAGE MISS PENALTY: 350.226
LLC5 RFO       ACCESS: 83693  HIT: 51015  MISS: 32678  HIT %: 60.9549  MISS %: 39.0451  AVERAGE MISS PENALTY: 909.754
LLC5 PREFETCH  ACCESS: 137729  HIT: 74164  MISS: 63565  HIT %: 53.8478  MISS %: 46.1522  AVERAGE MISS PENALTY: 390.432
LLC5 WRITEBACK ACCESS: 117530  HIT: 107608  MISS:  9922  HIT %: 91.5579  MISS %: 8.4421  AVERAGE MISS PENALTY: 0
LLC5 PREFETCH  REQUESTED:     0  ISSUED:     0  USEFUL: 14118  USELESS: 505983
 USEFUL LOAD PREFETCHES:      14118 PREFETCH ISSUED TO LOWER LEVEL:     616778  ACCURACY: 2.28899
 TIMELY PREFETCHES:      14118 LATE PREFETCHES: 0 DROPPED PREFETCHES: 0
LLC5 AVERAGE MISS LATENCY: 506.476 cycles
LLC6 TOTAL     ACCESS: 359874  HIT: 248675  MISS: 111199  HIT %: 69.1006  MISS %: 30.8994  AVERAGE MISS PENALTY: 516.793
LLC6 LOAD      ACCESS: 22734  HIT: 17447  MISS:  5287  HIT %: 76.7441  MISS %: 23.2559  AVERAGE MISS PENALTY: 378.605
LLC6 RFO       ACCESS: 83691  HIT: 51007  MISS: 32684  HIT %: 60.9468  MISS %: 39.0532  AVERAGE MISS PENALTY: 928.979
LLC6 PREFETCH  ACCESS: 137257  HIT: 74152  MISS: 63105  HIT %: 54.0242  MISS %: 45.9758  AVERAGE MISS PENALTY: 397.788
LLC6 WRITEBACK ACCESS: 116192  HIT: 106069  MISS: 10123  HIT %: 91.2877  MISS %: 8.7123  AVERAGE MISS PENALTY: 0
LLC6 PREFETCH  REQUESTED:     0  ISSUED:     0  USEFUL: 14321  USELESS: 502675
 USEFUL LOAD PREFETCHES:      14321 PREFETCH ISSUED TO LOWER LEVEL:     698863  ACCURACY: 2.04919
 TIMELY PREFETCHES:      14321 LATE PREFETCHES: 0 DROPPED PREFETCHES: 0
LLC6 AVERAGE MISS LATENCY: 516.793 cycles
LLC7 TOTAL     ACCESS: 361211  HIT: 249922  MISS: 111289  HIT %: 69.19  MISS %: 30.81  AVERAGE MISS PENALTY: 522.417
LLC7 LOAD      ACCESS: 22383  HIT: 17621  MISS:  4762  HIT %: 78.7249  MISS %: 21.2751  AVERAGE MISS PENALTY: 357.227
LLC7 RFO       ACCESS: 83753  HIT: 51269  MISS: 32484  HIT %: 61.2145  MISS %: 38.7855  AVERAGE MISS PENALTY: 949.075
LLC7 PREFETCH  ACCESS: 137985  HIT: 74249  MISS: 63736  HIT %: 53.8095  MISS %: 46.1905  AVERAGE MISS PENALTY: 401.789
LLC7 WRITEBACK ACCESS: 117090  HIT: 106783  MISS: 10307  HIT %: 91.1974  MISS %: 8.80263  AVERAGE MISS PENALTY: 0
LLC7 PREFETCH  REQUESTED:     0  ISSUED:     0  USEFUL: 13525  USELESS: 508326
 USEFUL LOAD PREFETCHES:      13525 PREFETCH ISSUED TO LOWER LEVEL:     610017  ACCURACY: 2.21715
 TIMELY PREFETCHES:      13525 LATE PREFETCHES: 0 DROPPED PREFETCHES: 0
LLC7 AVERAGE MISS LATENCY: 522.417 cycles
ROI Average ROB Stall Cycles:	4.8075
ROI Total ROB Stalls Cycles:	153740977
ROI TOTAL ROB counter      :	31979379
ROI Average Load ROB Stall Cycles:	17.2439
ROI Total Load ROB Stalls Cycle  :	50557525
ROI Total Load ROB stalls Counter:	2931907
Major fault: 0 Minor fault: 13489








Interconnect Stats 
LINK 0 BW : 0LINK 1 BW : 0LINK 2 BW : 0LINK 3 BW : 0LINK 4 BW : 0LINK 5 BW : 0LINK 6 BW : 0LINK 7 BW : 0
DRAM Statistics
 CHANNEL 0
 RQ ROW_BUFFER_HIT: 1088970  ROW_BUFFER_MISS: 2157300
 DBUS_CONGESTED: 4547936
 WQ ROW_BUFFER_HIT: 246710  ROW_BUFFER_MISS: 1327842  FULL:   122

 CHANNEL 1
 RQ ROW_BUFFER_HIT: 1094667  ROW_BUFFER_MISS: 2162401
 DBUS_CONGESTED: 4547936
 WQ ROW_BUFFER_HIT: 247469  ROW_BUFFER_MISS: 1329262  FULL:    88

 AVG_CONGESTED_CYCLE: 6
DRAM PAGES: 2097152
Allocated PAGES: 108180
L2C destructor called
L1D destructor called
L1I destructor called
STLB destructor called
DTLB destructor called
ITLB destructor called
L2C destructor called
L1D destructor called
L1I destructor called
STLB destructor called
DTLB destructor called
ITLB destructor called
L2C destructor called
L1D destructor called
L1I destructor called
STLB destructor called
DTLB destructor called
ITLB destructor called
L2C destructor called
L1D destructor called
L1I destructor called
STLB destructor called
DTLB destructor called
ITLB destructor called
L2C destructor called
L1D destructor called
L1I destructor called
STLB destructor called
DTLB destructor called
ITLB destructor called
L2C destructor called
L1D destructor called
L1I destructor called
STLB destructor called
DTLB destructor called
ITLB destructor called
L2C destructor called
L1D destructor called
L1I destructor called
STLB destructor called
DTLB destructor called
ITLB destructor called
L2C destructor called
L1D destructor called
L1I destructor called
STLB destructor called
DTLB destructor called
ITLB destructor called
