
*** ChampSim Multicore Out-of-Order Simulator ***

Warmup Instructions: 200000000
Simulation Instructions: 200000000
Number of CPUs: 8
threads:1

L1I Configuration:
L1I_SET:64
L1I_WAY:8
L1I_RQ_SIZE:64
L1I_WQ_SIZE:64
L1I_PQ_SIZE:8
L1I_MSHR_SIZE:8

L1D Configuration:
L1D_SET:64
L1D_WAY:12
L1D_RQ_SIZE:64
L1D_WQ_SIZE:64
L1D_PQ_SIZE:8
L1D_MSHR_SIZE:16

L2C Configuration:
L2C_SET:1024
L2C_WAY:8
L2C_RQ_SIZE:32
L2C_WQ_SIZE:32
L2C_PQ_SIZE:16
L2C_MSHR_SIZE:32

LLC Configuration:
LLC_SET:2048
LLC_WAY:16
LLC SLICES:8
LLC_RQ_SIZE:64
LLC_WQ_SIZE:64
LLC_PQ_SIZE:32
LLC_MSHR_SIZE:64

Interconnect OFF
Attacker deprioritize is: OFF
Off-chip DRAM Size: 8192 MB Channels: 2 Width: 64-bit Data Rate: 3200 MT/s
PAGE SIZE in KB: 4.000000 
PAGE SIZE in MB: 0.003906 
PAGE offset in bits: 12 
CEASER-S_LLC:0
MIRAGE : 0
CEASER_LATENCY:3
REMAP : OFF
Partitions : 1
Multi-Step : OFF
BFS : OFF

CPU 0 runs /home/anubhav/spec_2017/654.roms_s-293B.champsimtrace.xz
CPU 1 runs /home/anubhav/spec_2017/654.roms_s-293B.champsimtrace.xz
CPU 2 runs /home/anubhav/spec_2017/654.roms_s-293B.champsimtrace.xz
CPU 3 runs /home/anubhav/spec_2017/654.roms_s-293B.champsimtrace.xz
CPU 4 runs /home/anubhav/spec_2017/654.roms_s-293B.champsimtrace.xz
CPU 5 runs /home/anubhav/spec_2017/654.roms_s-293B.champsimtrace.xz
CPU 6 runs /home/anubhav/spec_2017/654.roms_s-293B.champsimtrace.xz
CPU 7 runs /home/anubhav/spec_2017/654.roms_s-293B.champsimtrace.xz
CPU 0 Bimodal branch predictor
Initialize Hawkeye state
Initialize Hawkeye state
Initialize Hawkeye state
Initialize Hawkeye state
Initialize Hawkeye state
Initialize Hawkeye state
Initialize Hawkeye state
Initialize Hawkeye state
CPU 1 Bimodal branch predictor
Initialize Hawkeye state
Initialize Hawkeye state
Initialize Hawkeye state
Initialize Hawkeye state
Initialize Hawkeye state
Initialize Hawkeye state
Initialize Hawkeye state
Initialize Hawkeye state
CPU 2 Bimodal branch predictor
Initialize Hawkeye state
Initialize Hawkeye state
Initialize Hawkeye state
Initialize Hawkeye state
Initialize Hawkeye state
Initialize Hawkeye state
Initialize Hawkeye state
Initialize Hawkeye state
CPU 3 Bimodal branch predictor
Initialize Hawkeye state
Initialize Hawkeye state
Initialize Hawkeye state
Initialize Hawkeye state
Initialize Hawkeye state
Initialize Hawkeye state
Initialize Hawkeye state
Initialize Hawkeye state
CPU 4 Bimodal branch predictor
Initialize Hawkeye state
Initialize Hawkeye state
Initialize Hawkeye state
Initialize Hawkeye state
Initialize Hawkeye state
Initialize Hawkeye state
Initialize Hawkeye state
Initialize Hawkeye state
CPU 5 Bimodal branch predictor
Initialize Hawkeye state
Initialize Hawkeye state
Initialize Hawkeye state
Initialize Hawkeye state
Initialize Hawkeye state
Initialize Hawkeye state
Initialize Hawkeye state
Initialize Hawkeye state
CPU 6 Bimodal branch predictor
Initialize Hawkeye state
Initialize Hawkeye state
Initialize Hawkeye state
Initialize Hawkeye state
Initialize Hawkeye state
Initialize Hawkeye state
Initialize Hawkeye state
Initialize Hawkeye state
CPU 7 Bimodal branch predictor
Initialize Hawkeye state
Initialize Hawkeye state
Initialize Hawkeye state
Initialize Hawkeye state
Initialize Hawkeye state
Initialize Hawkeye state
Initialize Hawkeye state
Initialize Hawkeye state
Heartbeat CPU 7 instructions: 10000000 cycles: 4295705 heartbeat IPC: 2.32791 cumulative IPC: 2.32791 (Simulation time: 3 hr 26 min 2 sec) 
 Total Blocks : 262144 Invalid Blocks : 35771
Heartbeat CPU 2 instructions: 10000000 cycles: 4295730 heartbeat IPC: 2.32789 cumulative IPC: 2.32789 (Simulation time: 3 hr 26 min 9 sec) 
 Total Blocks : 262144 Invalid Blocks : 35771
Heartbeat CPU 4 instructions: 10000000 cycles: 4295753 heartbeat IPC: 2.32788 cumulative IPC: 2.32788 (Simulation time: 3 hr 26 min 9 sec) 
 Total Blocks : 262144 Invalid Blocks : 35771
Heartbeat CPU 3 instructions: 10000000 cycles: 4295762 heartbeat IPC: 2.32788 cumulative IPC: 2.32788 (Simulation time: 3 hr 26 min 9 sec) 
 Total Blocks : 262144 Invalid Blocks : 35771
Heartbeat CPU 1 instructions: 10000000 cycles: 4295763 heartbeat IPC: 2.32788 cumulative IPC: 2.32788 (Simulation time: 3 hr 26 min 9 sec) 
 Total Blocks : 262144 Invalid Blocks : 35771
Heartbeat CPU 5 instructions: 10000000 cycles: 4295770 heartbeat IPC: 2.32787 cumulative IPC: 2.32787 (Simulation time: 3 hr 26 min 9 sec) 
 Total Blocks : 262144 Invalid Blocks : 35771
Heartbeat CPU 6 instructions: 10000000 cycles: 4295834 heartbeat IPC: 2.32784 cumulative IPC: 2.32784 (Simulation time: 3 hr 26 min 10 sec) 
 Total Blocks : 262144 Invalid Blocks : 35771
Heartbeat CPU 0 instructions: 10000000 cycles: 4295863 heartbeat IPC: 2.32782 cumulative IPC: 2.32782 (Simulation time: 3 hr 26 min 10 sec) 
 Total Blocks : 262144 Invalid Blocks : 35771
Heartbeat CPU 7 instructions: 20000002 cycles: 8742170 heartbeat IPC: 2.24898 cumulative IPC: 2.28776 (Simulation time: 6 hr 52 min 30 sec) 
 Total Blocks : 262144 Invalid Blocks : 5904
Heartbeat CPU 4 instructions: 20000002 cycles: 8742267 heartbeat IPC: 2.24895 cumulative IPC: 2.28774 (Simulation time: 6 hr 52 min 38 sec) 
 Total Blocks : 262144 Invalid Blocks : 5904
Heartbeat CPU 1 instructions: 20000002 cycles: 8742289 heartbeat IPC: 2.24895 cumulative IPC: 2.28773 (Simulation time: 6 hr 52 min 39 sec) 
 Total Blocks : 262144 Invalid Blocks : 5904
Heartbeat CPU 3 instructions: 20000002 cycles: 8742426 heartbeat IPC: 2.24888 cumulative IPC: 2.28769 (Simulation time: 6 hr 52 min 40 sec) 
 Total Blocks : 262144 Invalid Blocks : 5904
Heartbeat CPU 2 instructions: 20000002 cycles: 8742429 heartbeat IPC: 2.24886 cumulative IPC: 2.28769 (Simulation time: 6 hr 52 min 40 sec) 
 Total Blocks : 262144 Invalid Blocks : 5904
Heartbeat CPU 0 instructions: 20000002 cycles: 8742496 heartbeat IPC: 2.24889 cumulative IPC: 2.28768 (Simulation time: 6 hr 52 min 40 sec) 
 Total Blocks : 262144 Invalid Blocks : 5904
Heartbeat CPU 5 instructions: 20000002 cycles: 8742584 heartbeat IPC: 2.2488 cumulative IPC: 2.28765 (Simulation time: 6 hr 52 min 41 sec) 
 Total Blocks : 262144 Invalid Blocks : 5904
Heartbeat CPU 6 instructions: 20000002 cycles: 8742631 heartbeat IPC: 2.24881 cumulative IPC: 2.28764 (Simulation time: 6 hr 52 min 42 sec) 
 Total Blocks : 262144 Invalid Blocks : 5904
Heartbeat CPU 7 instructions: 30000003 cycles: 13038125 heartbeat IPC: 2.32777 cumulative IPC: 2.30094 (Simulation time: 10 hr 3 min 5 sec) 
 Total Blocks : 262144 Invalid Blocks : 1871
Heartbeat CPU 4 instructions: 30000003 cycles: 13038302 heartbeat IPC: 2.32773 cumulative IPC: 2.30091 (Simulation time: 10 hr 3 min 12 sec) 
 Total Blocks : 262144 Invalid Blocks : 1871
Heartbeat CPU 1 instructions: 30000003 cycles: 13038375 heartbeat IPC: 2.3277 cumulative IPC: 2.3009 (Simulation time: 10 hr 3 min 12 sec) 
 Total Blocks : 262144 Invalid Blocks : 1871
Heartbeat CPU 2 instructions: 30000003 cycles: 13038593 heartbeat IPC: 2.32766 cumulative IPC: 2.30086 (Simulation time: 10 hr 3 min 13 sec) 
 Total Blocks : 262144 Invalid Blocks : 1871
Heartbeat CPU 0 instructions: 30000003 cycles: 13038674 heartbeat IPC: 2.32765 cumulative IPC: 2.30085 (Simulation time: 10 hr 3 min 13 sec) 
 Total Blocks : 262144 Invalid Blocks : 1871
Heartbeat CPU 5 instructions: 30000003 cycles: 13038699 heartbeat IPC: 2.32768 cumulative IPC: 2.30084 (Simulation time: 10 hr 3 min 13 sec) 
 Total Blocks : 262144 Invalid Blocks : 1871
Heartbeat CPU 3 instructions: 30000003 cycles: 13038734 heartbeat IPC: 2.32758 cumulative IPC: 2.30084 (Simulation time: 10 hr 3 min 13 sec) 
 Total Blocks : 262144 Invalid Blocks : 1871
Heartbeat CPU 6 instructions: 30000003 cycles: 13038858 heartbeat IPC: 2.32762 cumulative IPC: 2.30082 (Simulation time: 10 hr 3 min 13 sec) 
 Total Blocks : 262144 Invalid Blocks : 1871
Heartbeat CPU 7 instructions: 40000002 cycles: 17483957 heartbeat IPC: 2.2493 cumulative IPC: 2.28781 (Simulation time: 13 hr 3 min 41 sec) 
 Total Blocks : 262144 Invalid Blocks : 574
Heartbeat CPU 4 instructions: 40000002 cycles: 17484190 heartbeat IPC: 2.24927 cumulative IPC: 2.28778 (Simulation time: 13 hr 3 min 48 sec) 
 Total Blocks : 262144 Invalid Blocks : 574
Heartbeat CPU 1 instructions: 40000002 cycles: 17484221 heartbeat IPC: 2.24929 cumulative IPC: 2.28778 (Simulation time: 13 hr 3 min 49 sec) 
 Total Blocks : 262144 Invalid Blocks : 574
Heartbeat CPU 2 instructions: 40000002 cycles: 17484532 heartbeat IPC: 2.24924 cumulative IPC: 2.28774 (Simulation time: 13 hr 3 min 49 sec) 
 Total Blocks : 262144 Invalid Blocks : 574
Heartbeat CPU 3 instructions: 40000002 cycles: 17484624 heartbeat IPC: 2.24927 cumulative IPC: 2.28772 (Simulation time: 13 hr 3 min 49 sec) 
 Total Blocks : 262144 Invalid Blocks : 574
Heartbeat CPU 0 instructions: 40000002 cycles: 17484626 heartbeat IPC: 2.24924 cumulative IPC: 2.28772 (Simulation time: 13 hr 3 min 49 sec) 
 Total Blocks : 262144 Invalid Blocks : 574
Heartbeat CPU 6 instructions: 40000002 cycles: 17484654 heartbeat IPC: 2.24932 cumulative IPC: 2.28772 (Simulation time: 13 hr 3 min 49 sec) 
 Total Blocks : 262144 Invalid Blocks : 574
Heartbeat CPU 5 instructions: 40000002 cycles: 17484677 heartbeat IPC: 2.24922 cumulative IPC: 2.28772 (Simulation time: 13 hr 3 min 49 sec) 
 Total Blocks : 262144 Invalid Blocks : 574
Heartbeat CPU 7 instructions: 50000002 cycles: 21779968 heartbeat IPC: 2.32774 cumulative IPC: 2.29569 (Simulation time: 15 hr 33 min 36 sec) 
 Total Blocks : 262144 Invalid Blocks : 232
Heartbeat CPU 1 instructions: 50000002 cycles: 21780209 heartbeat IPC: 2.32775 cumulative IPC: 2.29566 (Simulation time: 15 hr 33 min 40 sec) 
 Total Blocks : 262144 Invalid Blocks : 232
Heartbeat CPU 4 instructions: 50000002 cycles: 21780266 heartbeat IPC: 2.32771 cumulative IPC: 2.29566 (Simulation time: 15 hr 33 min 40 sec) 
 Total Blocks : 262144 Invalid Blocks : 232
Heartbeat CPU 2 instructions: 50000002 cycles: 21780620 heartbeat IPC: 2.3277 cumulative IPC: 2.29562 (Simulation time: 15 hr 33 min 41 sec) 
 Total Blocks : 262144 Invalid Blocks : 232
Heartbeat CPU 6 instructions: 50000002 cycles: 21780671 heartbeat IPC: 2.32774 cumulative IPC: 2.29561 (Simulation time: 15 hr 33 min 41 sec) 
 Total Blocks : 262144 Invalid Blocks : 232
Heartbeat CPU 0 instructions: 50000002 cycles: 21780674 heartbeat IPC: 2.32772 cumulative IPC: 2.29561 (Simulation time: 15 hr 33 min 41 sec) 
 Total Blocks : 262144 Invalid Blocks : 232
Heartbeat CPU 5 instructions: 50000002 cycles: 21780678 heartbeat IPC: 2.32775 cumulative IPC: 2.29561 (Simulation time: 15 hr 33 min 41 sec) 
 Total Blocks : 262144 Invalid Blocks : 232
Heartbeat CPU 3 instructions: 50000002 cycles: 21780824 heartbeat IPC: 2.32764 cumulative IPC: 2.2956 (Simulation time: 15 hr 33 min 42 sec) 
 Total Blocks : 262144 Invalid Blocks : 232
Heartbeat CPU 7 instructions: 60000001 cycles: 26226213 heartbeat IPC: 2.24909 cumulative IPC: 2.28779 (Simulation time: 17 hr 56 min 15 sec) 
 Total Blocks : 262144 Invalid Blocks : 95
Heartbeat CPU 4 instructions: 60000001 cycles: 26226451 heartbeat IPC: 2.24912 cumulative IPC: 2.28777 (Simulation time: 17 hr 56 min 26 sec) 
 Total Blocks : 262144 Invalid Blocks : 95
Heartbeat CPU 1 instructions: 60000001 cycles: 26226458 heartbeat IPC: 2.24909 cumulative IPC: 2.28777 (Simulation time: 17 hr 56 min 26 sec) 
 Total Blocks : 262144 Invalid Blocks : 95
Heartbeat CPU 2 instructions: 60000001 cycles: 26226933 heartbeat IPC: 2.24905 cumulative IPC: 2.28772 (Simulation time: 17 hr 56 min 27 sec) 
 Total Blocks : 262144 Invalid Blocks : 95
Heartbeat CPU 5 instructions: 60000001 cycles: 26226940 heartbeat IPC: 2.24908 cumulative IPC: 2.28772 (Simulation time: 17 hr 56 min 27 sec) 
 Total Blocks : 262144 Invalid Blocks : 95
Heartbeat CPU 0 instructions: 60000001 cycles: 26227044 heartbeat IPC: 2.24903 cumulative IPC: 2.28771 (Simulation time: 17 hr 56 min 27 sec) 
 Total Blocks : 262144 Invalid Blocks : 95
Heartbeat CPU 6 instructions: 60000001 cycles: 26227070 heartbeat IPC: 2.24901 cumulative IPC: 2.28771 (Simulation time: 17 hr 56 min 27 sec) 
 Total Blocks : 262144 Invalid Blocks : 95
Heartbeat CPU 3 instructions: 60000001 cycles: 26227401 heartbeat IPC: 2.24892 cumulative IPC: 2.28768 (Simulation time: 17 hr 56 min 27 sec) 
 Total Blocks : 262144 Invalid Blocks : 95
Heartbeat CPU 7 instructions: 70000002 cycles: 30521321 heartbeat IPC: 2.32823 cumulative IPC: 2.29348 (Simulation time: 20 hr 2 min 31 sec) 
 Total Blocks : 262144 Invalid Blocks : 48
Heartbeat CPU 1 instructions: 70000002 cycles: 30521591 heartbeat IPC: 2.32822 cumulative IPC: 2.29346 (Simulation time: 20 hr 2 min 40 sec) 
 Total Blocks : 262144 Invalid Blocks : 48
Heartbeat CPU 4 instructions: 70000002 cycles: 30521632 heartbeat IPC: 2.32819 cumulative IPC: 2.29346 (Simulation time: 20 hr 2 min 40 sec) 
 Total Blocks : 262144 Invalid Blocks : 48
Heartbeat CPU 2 instructions: 70000002 cycles: 30522160 heartbeat IPC: 2.32817 cumulative IPC: 2.29342 (Simulation time: 20 hr 2 min 41 sec) 
 Total Blocks : 262144 Invalid Blocks : 48
Heartbeat CPU 6 instructions: 70000002 cycles: 30522172 heartbeat IPC: 2.32823 cumulative IPC: 2.29341 (Simulation time: 20 hr 2 min 41 sec) 
 Total Blocks : 262144 Invalid Blocks : 48
Heartbeat CPU 5 instructions: 70000002 cycles: 30522262 heartbeat IPC: 2.32811 cumulative IPC: 2.29341 (Simulation time: 20 hr 2 min 41 sec) 
 Total Blocks : 262144 Invalid Blocks : 48
Heartbeat CPU 0 instructions: 70000002 cycles: 30522337 heartbeat IPC: 2.32813 cumulative IPC: 2.2934 (Simulation time: 20 hr 2 min 41 sec) 
 Total Blocks : 262144 Invalid Blocks : 48
Heartbeat CPU 3 instructions: 70000002 cycles: 30522912 heartbeat IPC: 2.32801 cumulative IPC: 2.29336 (Simulation time: 20 hr 2 min 42 sec) 
 Total Blocks : 262144 Invalid Blocks : 48
Heartbeat CPU 7 instructions: 80000001 cycles: 34943455 heartbeat IPC: 2.26135 cumulative IPC: 2.28941 (Simulation time: 22 hr 13 min 18 sec) 
 Total Blocks : 262144 Invalid Blocks : 20
Heartbeat CPU 1 instructions: 80000001 cycles: 34943615 heartbeat IPC: 2.26141 cumulative IPC: 2.2894 (Simulation time: 22 hr 13 min 21 sec) 
 Total Blocks : 262144 Invalid Blocks : 20
Heartbeat CPU 4 instructions: 80000001 cycles: 34943743 heartbeat IPC: 2.26136 cumulative IPC: 2.28939 (Simulation time: 22 hr 13 min 22 sec) 
 Total Blocks : 262144 Invalid Blocks : 20
Heartbeat CPU 5 instructions: 80000001 cycles: 34944420 heartbeat IPC: 2.26134 cumulative IPC: 2.28935 (Simulation time: 22 hr 13 min 23 sec) 
 Total Blocks : 262144 Invalid Blocks : 20
Heartbeat CPU 2 instructions: 80000001 cycles: 34944425 heartbeat IPC: 2.26128 cumulative IPC: 2.28935 (Simulation time: 22 hr 13 min 23 sec) 
 Total Blocks : 262144 Invalid Blocks : 20
Heartbeat CPU 6 instructions: 80000001 cycles: 34944458 heartbeat IPC: 2.26127 cumulative IPC: 2.28935 (Simulation time: 22 hr 13 min 23 sec) 
 Total Blocks : 262144 Invalid Blocks : 20
Heartbeat CPU 0 instructions: 80000001 cycles: 34944569 heartbeat IPC: 2.2613 cumulative IPC: 2.28934 (Simulation time: 22 hr 13 min 23 sec) 
 Total Blocks : 262144 Invalid Blocks : 20
Heartbeat CPU 3 instructions: 80000001 cycles: 34945078 heartbeat IPC: 2.26134 cumulative IPC: 2.28931 (Simulation time: 22 hr 13 min 23 sec) 
 Total Blocks : 262144 Invalid Blocks : 20
Heartbeat CPU 7 instructions: 90000001 cycles: 39263721 heartbeat IPC: 2.31467 cumulative IPC: 2.29219 (Simulation time: 24 hr 17 min 11 sec) 
 Total Blocks : 262144 Invalid Blocks : 8
Heartbeat CPU 1 instructions: 90000001 cycles: 39263951 heartbeat IPC: 2.31463 cumulative IPC: 2.29218 (Simulation time: 24 hr 17 min 13 sec) 
 Total Blocks : 262144 Invalid Blocks : 8
Heartbeat CPU 4 instructions: 90000001 cycles: 39264109 heartbeat IPC: 2.31462 cumulative IPC: 2.29217 (Simulation time: 24 hr 17 min 13 sec) 
 Total Blocks : 262144 Invalid Blocks : 8
Heartbeat CPU 5 instructions: 90000001 cycles: 39264716 heartbeat IPC: 2.31466 cumulative IPC: 2.29213 (Simulation time: 24 hr 17 min 14 sec) 
 Total Blocks : 262144 Invalid Blocks : 8
Heartbeat CPU 6 instructions: 90000001 cycles: 39264880 heartbeat IPC: 2.31459 cumulative IPC: 2.29212 (Simulation time: 24 hr 17 min 14 sec) 
 Total Blocks : 262144 Invalid Blocks : 8
Heartbeat CPU 0 instructions: 90000001 cycles: 39264926 heartbeat IPC: 2.31462 cumulative IPC: 2.29212 (Simulation time: 24 hr 17 min 14 sec) 
 Total Blocks : 262144 Invalid Blocks : 8
Heartbeat CPU 2 instructions: 90000001 cycles: 39265001 heartbeat IPC: 2.31451 cumulative IPC: 2.29212 (Simulation time: 24 hr 17 min 14 sec) 
 Total Blocks : 262144 Invalid Blocks : 8
Heartbeat CPU 3 instructions: 90000001 cycles: 39265725 heartbeat IPC: 2.31447 cumulative IPC: 2.29208 (Simulation time: 24 hr 17 min 15 sec) 
 Total Blocks : 262144 Invalid Blocks : 8
Heartbeat CPU 7 instructions: 100000001 cycles: 43617217 heartbeat IPC: 2.297 cumulative IPC: 2.29267 (Simulation time: 26 hr 12 min 29 sec) 
 Total Blocks : 262144 Invalid Blocks : 4
Heartbeat CPU 1 instructions: 100000001 cycles: 43617405 heartbeat IPC: 2.29703 cumulative IPC: 2.29266 (Simulation time: 26 hr 12 min 32 sec) 
 Total Blocks : 262144 Invalid Blocks : 4
Heartbeat CPU 4 instructions: 100000001 cycles: 43617628 heartbeat IPC: 2.29699 cumulative IPC: 2.29265 (Simulation time: 26 hr 12 min 32 sec) 
 Total Blocks : 262144 Invalid Blocks : 4
Heartbeat CPU 5 instructions: 100000001 cycles: 43618266 heartbeat IPC: 2.29698 cumulative IPC: 2.29262 (Simulation time: 26 hr 12 min 33 sec) 
 Total Blocks : 262144 Invalid Blocks : 4
Heartbeat CPU 6 instructions: 100000001 cycles: 43618443 heartbeat IPC: 2.29697 cumulative IPC: 2.29261 (Simulation time: 26 hr 12 min 33 sec) 
 Total Blocks : 262144 Invalid Blocks : 4
Heartbeat CPU 0 instructions: 100000001 cycles: 43618585 heartbeat IPC: 2.29692 cumulative IPC: 2.2926 (Simulation time: 26 hr 12 min 33 sec) 
 Total Blocks : 262144 Invalid Blocks : 4
Heartbeat CPU 2 instructions: 100000001 cycles: 43618697 heartbeat IPC: 2.2969 cumulative IPC: 2.29259 (Simulation time: 26 hr 12 min 33 sec) 
 Total Blocks : 262144 Invalid Blocks : 4
Heartbeat CPU 3 instructions: 100000001 cycles: 43619427 heartbeat IPC: 2.2969 cumulative IPC: 2.29256 (Simulation time: 26 hr 12 min 34 sec) 
 Total Blocks : 262144 Invalid Blocks : 4
Heartbeat CPU 7 instructions: 110000000 cycles: 48006018 heartbeat IPC: 2.27853 cumulative IPC: 2.29138 (Simulation time: 28 hr 13 min 53 sec) 
 Total Blocks : 262144 Invalid Blocks : 1
Heartbeat CPU 1 instructions: 110000000 cycles: 48006318 heartbeat IPC: 2.27847 cumulative IPC: 2.29137 (Simulation time: 28 hr 13 min 55 sec) 
 Total Blocks : 262144 Invalid Blocks : 1
Heartbeat CPU 4 instructions: 110000000 cycles: 48006462 heartbeat IPC: 2.27851 cumulative IPC: 2.29136 (Simulation time: 28 hr 13 min 55 sec) 
 Total Blocks : 262144 Invalid Blocks : 1
Heartbeat CPU 5 instructions: 110000000 cycles: 48007232 heartbeat IPC: 2.27844 cumulative IPC: 2.29132 (Simulation time: 28 hr 13 min 56 sec) 
 Total Blocks : 262144 Invalid Blocks : 1
Heartbeat CPU 6 instructions: 110000000 cycles: 48007433 heartbeat IPC: 2.27843 cumulative IPC: 2.29131 (Simulation time: 28 hr 13 min 56 sec) 
 Total Blocks : 262144 Invalid Blocks : 1
Heartbeat CPU 0 instructions: 110000000 cycles: 48007623 heartbeat IPC: 2.2784 cumulative IPC: 2.2913 (Simulation time: 28 hr 13 min 56 sec) 
 Total Blocks : 262144 Invalid Blocks : 1
Heartbeat CPU 2 instructions: 110000000 cycles: 48007636 heartbeat IPC: 2.27845 cumulative IPC: 2.2913 (Simulation time: 28 hr 13 min 56 sec) 
 Total Blocks : 262144 Invalid Blocks : 1
Heartbeat CPU 3 instructions: 110000000 cycles: 48008505 heartbeat IPC: 2.27838 cumulative IPC: 2.29126 (Simulation time: 28 hr 13 min 57 sec) 
 Total Blocks : 262144 Invalid Blocks : 1
Heartbeat CPU 7 instructions: 120000003 cycles: 52307740 heartbeat IPC: 2.32465 cumulative IPC: 2.29412 (Simulation time: 30 hr 8 min 54 sec) 
 Total Blocks : 262144 Invalid Blocks : 0
Heartbeat CPU 1 instructions: 120000003 cycles: 52308046 heartbeat IPC: 2.32465 cumulative IPC: 2.2941 (Simulation time: 30 hr 8 min 56 sec) 
 Total Blocks : 262144 Invalid Blocks : 0
Heartbeat CPU 4 instructions: 120000003 cycles: 52308213 heartbeat IPC: 2.32464 cumulative IPC: 2.29409 (Simulation time: 30 hr 8 min 57 sec) 
 Total Blocks : 262144 Invalid Blocks : 0
Heartbeat CPU 5 instructions: 120000003 cycles: 52309006 heartbeat IPC: 2.32462 cumulative IPC: 2.29406 (Simulation time: 30 hr 8 min 58 sec) 
 Total Blocks : 262144 Invalid Blocks : 0
Heartbeat CPU 6 instructions: 120000003 cycles: 52309290 heartbeat IPC: 2.32458 cumulative IPC: 2.29405 (Simulation time: 30 hr 8 min 58 sec) 
 Total Blocks : 262144 Invalid Blocks : 0
Heartbeat CPU 0 instructions: 120000003 cycles: 52309441 heartbeat IPC: 2.3246 cumulative IPC: 2.29404 (Simulation time: 30 hr 8 min 58 sec) 
 Total Blocks : 262144 Invalid Blocks : 0
Heartbeat CPU 2 instructions: 120000003 cycles: 52309497 heartbeat IPC: 2.32458 cumulative IPC: 2.29404 (Simulation time: 30 hr 8 min 58 sec) 
 Total Blocks : 262144 Invalid Blocks : 0
Heartbeat CPU 3 instructions: 120000003 cycles: 52310408 heartbeat IPC: 2.32455 cumulative IPC: 2.294 (Simulation time: 30 hr 8 min 59 sec) 
 Total Blocks : 262144 Invalid Blocks : 0
Heartbeat CPU 7 instructions: 130000003 cycles: 56845574 heartbeat IPC: 2.20369 cumulative IPC: 2.2869 (Simulation time: 32 hr 21 min 10 sec) 
 Total Blocks : 262144 Invalid Blocks : 0
Heartbeat CPU 1 instructions: 130000003 cycles: 56846024 heartbeat IPC: 2.20362 cumulative IPC: 2.28688 (Simulation time: 32 hr 21 min 14 sec) 
 Total Blocks : 262144 Invalid Blocks : 0
Heartbeat CPU 4 instructions: 130000003 cycles: 56846231 heartbeat IPC: 2.20361 cumulative IPC: 2.28687 (Simulation time: 32 hr 21 min 15 sec) 
 Total Blocks : 262144 Invalid Blocks : 0
Heartbeat CPU 5 instructions: 130000003 cycles: 56847036 heartbeat IPC: 2.2036 cumulative IPC: 2.28684 (Simulation time: 32 hr 21 min 17 sec) 
 Total Blocks : 262144 Invalid Blocks : 0
Heartbeat CPU 6 instructions: 130000003 cycles: 56847313 heartbeat IPC: 2.2036 cumulative IPC: 2.28683 (Simulation time: 32 hr 21 min 18 sec) 
 Total Blocks : 262144 Invalid Blocks : 0
Heartbeat CPU 0 instructions: 130000003 cycles: 56847549 heartbeat IPC: 2.20356 cumulative IPC: 2.28682 (Simulation time: 32 hr 21 min 19 sec) 
 Total Blocks : 262144 Invalid Blocks : 0
Heartbeat CPU 2 instructions: 130000003 cycles: 56847626 heartbeat IPC: 2.20355 cumulative IPC: 2.28681 (Simulation time: 32 hr 21 min 19 sec) 
 Total Blocks : 262144 Invalid Blocks : 0
Heartbeat CPU 3 instructions: 130000003 cycles: 56848552 heartbeat IPC: 2.20354 cumulative IPC: 2.28678 (Simulation time: 32 hr 21 min 21 sec) 
 Total Blocks : 262144 Invalid Blocks : 0
Heartbeat CPU 7 instructions: 140000002 cycles: 61542190 heartbeat IPC: 2.12919 cumulative IPC: 2.27486 (Simulation time: 34 hr 57 min 13 sec) 
 Total Blocks : 262144 Invalid Blocks : 0
Heartbeat CPU 1 instructions: 140000002 cycles: 61542656 heartbeat IPC: 2.12919 cumulative IPC: 2.27484 (Simulation time: 34 hr 57 min 16 sec) 
 Total Blocks : 262144 Invalid Blocks : 0
Heartbeat CPU 4 instructions: 140000002 cycles: 61542856 heartbeat IPC: 2.12919 cumulative IPC: 2.27484 (Simulation time: 34 hr 57 min 16 sec) 
 Total Blocks : 262144 Invalid Blocks : 0
Heartbeat CPU 5 instructions: 140000002 cycles: 61543665 heartbeat IPC: 2.12919 cumulative IPC: 2.27481 (Simulation time: 34 hr 57 min 17 sec) 
 Total Blocks : 262144 Invalid Blocks : 0
Heartbeat CPU 6 instructions: 140000002 cycles: 61543927 heartbeat IPC: 2.12919 cumulative IPC: 2.2748 (Simulation time: 34 hr 57 min 18 sec) 
 Total Blocks : 262144 Invalid Blocks : 0
Heartbeat CPU 0 instructions: 140000002 cycles: 61544175 heartbeat IPC: 2.12919 cumulative IPC: 2.27479 (Simulation time: 34 hr 57 min 18 sec) 
 Total Blocks : 262144 Invalid Blocks : 0
Heartbeat CPU 2 instructions: 140000002 cycles: 61544241 heartbeat IPC: 2.12919 cumulative IPC: 2.27479 (Simulation time: 34 hr 57 min 18 sec) 
 Total Blocks : 262144 Invalid Blocks : 0
Heartbeat CPU 3 instructions: 140000002 cycles: 61545190 heartbeat IPC: 2.12918 cumulative IPC: 2.27475 (Simulation time: 34 hr 57 min 20 sec) 
 Total Blocks : 262144 Invalid Blocks : 0
Heartbeat CPU 7 instructions: 150000002 cycles: 66238778 heartbeat IPC: 2.12921 cumulative IPC: 2.26453 (Simulation time: 37 hr 39 min 53 sec) 
 Total Blocks : 262144 Invalid Blocks : 0
Heartbeat CPU 1 instructions: 150000002 cycles: 66239252 heartbeat IPC: 2.1292 cumulative IPC: 2.26452 (Simulation time: 37 hr 39 min 55 sec) 
 Total Blocks : 262144 Invalid Blocks : 0
Heartbeat CPU 4 instructions: 150000002 cycles: 66239443 heartbeat IPC: 2.12921 cumulative IPC: 2.26451 (Simulation time: 37 hr 39 min 55 sec) 
 Total Blocks : 262144 Invalid Blocks : 0
Heartbeat CPU 5 instructions: 150000002 cycles: 66240249 heartbeat IPC: 2.12921 cumulative IPC: 2.26448 (Simulation time: 37 hr 39 min 55 sec) 
 Total Blocks : 262144 Invalid Blocks : 0
Heartbeat CPU 6 instructions: 150000002 cycles: 66240533 heartbeat IPC: 2.1292 cumulative IPC: 2.26447 (Simulation time: 37 hr 39 min 56 sec) 
 Total Blocks : 262144 Invalid Blocks : 0
Heartbeat CPU 0 instructions: 150000002 cycles: 66240764 heartbeat IPC: 2.1292 cumulative IPC: 2.26447 (Simulation time: 37 hr 39 min 56 sec) 
 Total Blocks : 262144 Invalid Blocks : 0
Heartbeat CPU 2 instructions: 150000002 cycles: 66240821 heartbeat IPC: 2.12921 cumulative IPC: 2.26446 (Simulation time: 37 hr 39 min 56 sec) 
 Total Blocks : 262144 Invalid Blocks : 0
Heartbeat CPU 3 instructions: 150000002 cycles: 66241792 heartbeat IPC: 2.1292 cumulative IPC: 2.26443 (Simulation time: 37 hr 39 min 56 sec) 
 Total Blocks : 262144 Invalid Blocks : 0
Heartbeat CPU 7 instructions: 160000002 cycles: 70935327 heartbeat IPC: 2.12922 cumulative IPC: 2.25558 (Simulation time: 40 hr 29 min 40 sec) 
 Total Blocks : 262144 Invalid Blocks : 0
Heartbeat CPU 1 instructions: 160000002 cycles: 70935831 heartbeat IPC: 2.12921 cumulative IPC: 2.25556 (Simulation time: 40 hr 29 min 59 sec) 
 Total Blocks : 262144 Invalid Blocks : 0
Heartbeat CPU 4 instructions: 160000002 cycles: 70936016 heartbeat IPC: 2.12921 cumulative IPC: 2.25555 (Simulation time: 40 hr 30 min 1 sec) 
 Total Blocks : 262144 Invalid Blocks : 0
Heartbeat CPU 5 instructions: 160000002 cycles: 70936818 heartbeat IPC: 2.12921 cumulative IPC: 2.25553 (Simulation time: 40 hr 30 min 2 sec) 
 Total Blocks : 262144 Invalid Blocks : 0
Heartbeat CPU 6 instructions: 160000002 cycles: 70937098 heartbeat IPC: 2.12922 cumulative IPC: 2.25552 (Simulation time: 40 hr 30 min 3 sec) 
 Total Blocks : 262144 Invalid Blocks : 0
Heartbeat CPU 0 instructions: 160000002 cycles: 70937342 heartbeat IPC: 2.12921 cumulative IPC: 2.25551 (Simulation time: 40 hr 30 min 3 sec) 
 Total Blocks : 262144 Invalid Blocks : 0
Heartbeat CPU 2 instructions: 160000002 cycles: 70937394 heartbeat IPC: 2.12921 cumulative IPC: 2.25551 (Simulation time: 40 hr 30 min 4 sec) 
 Total Blocks : 262144 Invalid Blocks : 0
Heartbeat CPU 3 instructions: 160000002 cycles: 70938410 heartbeat IPC: 2.12919 cumulative IPC: 2.25548 (Simulation time: 40 hr 30 min 6 sec) 
 Total Blocks : 262144 Invalid Blocks : 0
Heartbeat CPU 7 instructions: 170000002 cycles: 75631983 heartbeat IPC: 2.12917 cumulative IPC: 2.24773 (Simulation time: 43 hr 32 min 58 sec) 
 Total Blocks : 262144 Invalid Blocks : 0
Heartbeat CPU 1 instructions: 170000002 cycles: 75632475 heartbeat IPC: 2.12918 cumulative IPC: 2.24771 (Simulation time: 43 hr 33 min 1 sec) 
 Total Blocks : 262144 Invalid Blocks : 0
Heartbeat CPU 4 instructions: 170000002 cycles: 75632673 heartbeat IPC: 2.12917 cumulative IPC: 2.24771 (Simulation time: 43 hr 33 min 2 sec) 
 Total Blocks : 262144 Invalid Blocks : 0
Heartbeat CPU 5 instructions: 170000002 cycles: 75633479 heartbeat IPC: 2.12917 cumulative IPC: 2.24768 (Simulation time: 43 hr 33 min 3 sec) 
 Total Blocks : 262144 Invalid Blocks : 0
Heartbeat CPU 6 instructions: 170000002 cycles: 75633765 heartbeat IPC: 2.12917 cumulative IPC: 2.24767 (Simulation time: 43 hr 33 min 4 sec) 
 Total Blocks : 262144 Invalid Blocks : 0
Heartbeat CPU 0 instructions: 170000002 cycles: 75634000 heartbeat IPC: 2.12917 cumulative IPC: 2.24767 (Simulation time: 43 hr 33 min 4 sec) 
 Total Blocks : 262144 Invalid Blocks : 0
Heartbeat CPU 2 instructions: 170000002 cycles: 75634055 heartbeat IPC: 2.12917 cumulative IPC: 2.24766 (Simulation time: 43 hr 33 min 5 sec) 
 Total Blocks : 262144 Invalid Blocks : 0
Heartbeat CPU 3 instructions: 170000002 cycles: 75635100 heartbeat IPC: 2.12916 cumulative IPC: 2.24763 (Simulation time: 43 hr 33 min 7 sec) 
 Total Blocks : 262144 Invalid Blocks : 0
Heartbeat CPU 7 instructions: 180000000 cycles: 80328708 heartbeat IPC: 2.12914 cumulative IPC: 2.24079 (Simulation time: 46 hr 42 min 10 sec) 
 Total Blocks : 262144 Invalid Blocks : 0
Heartbeat CPU 1 instructions: 180000000 cycles: 80329192 heartbeat IPC: 2.12915 cumulative IPC: 2.24078 (Simulation time: 46 hr 42 min 12 sec) 
 Total Blocks : 262144 Invalid Blocks : 0
Heartbeat CPU 4 instructions: 180000000 cycles: 80329418 heartbeat IPC: 2.12913 cumulative IPC: 2.24077 (Simulation time: 46 hr 42 min 12 sec) 
 Total Blocks : 262144 Invalid Blocks : 0
Heartbeat CPU 5 instructions: 180000000 cycles: 80330196 heartbeat IPC: 2.12915 cumulative IPC: 2.24075 (Simulation time: 46 hr 42 min 13 sec) 
 Total Blocks : 262144 Invalid Blocks : 0
Heartbeat CPU 6 instructions: 180000000 cycles: 80330488 heartbeat IPC: 2.12914 cumulative IPC: 2.24074 (Simulation time: 46 hr 42 min 13 sec) 
 Total Blocks : 262144 Invalid Blocks : 0
Heartbeat CPU 0 instructions: 180000000 cycles: 80330713 heartbeat IPC: 2.12915 cumulative IPC: 2.24074 (Simulation time: 46 hr 42 min 13 sec) 
 Total Blocks : 262144 Invalid Blocks : 0
Heartbeat CPU 2 instructions: 180000000 cycles: 80330757 heartbeat IPC: 2.12915 cumulative IPC: 2.24074 (Simulation time: 46 hr 42 min 13 sec) 
 Total Blocks : 262144 Invalid Blocks : 0
Heartbeat CPU 3 instructions: 180000000 cycles: 80331848 heartbeat IPC: 2.12913 cumulative IPC: 2.24071 (Simulation time: 46 hr 42 min 14 sec) 
 Total Blocks : 262144 Invalid Blocks : 0
Heartbeat CPU 7 instructions: 190000002 cycles: 85025318 heartbeat IPC: 2.1292 cumulative IPC: 2.23463 (Simulation time: 50 hr 2 min 0 sec) 
 Total Blocks : 262144 Invalid Blocks : 0
Heartbeat CPU 1 instructions: 190000002 cycles: 85025795 heartbeat IPC: 2.1292 cumulative IPC: 2.23462 (Simulation time: 50 hr 2 min 1 sec) 
 Total Blocks : 262144 Invalid Blocks : 0
Heartbeat CPU 4 instructions: 190000002 cycles: 85026026 heartbeat IPC: 2.1292 cumulative IPC: 2.23461 (Simulation time: 50 hr 2 min 1 sec) 
 Total Blocks : 262144 Invalid Blocks : 0
Heartbeat CPU 5 instructions: 190000002 cycles: 85026794 heartbeat IPC: 2.1292 cumulative IPC: 2.23459 (Simulation time: 50 hr 2 min 2 sec) 
 Total Blocks : 262144 Invalid Blocks : 0
Heartbeat CPU 6 instructions: 190000002 cycles: 85027120 heartbeat IPC: 2.12919 cumulative IPC: 2.23458 (Simulation time: 50 hr 2 min 5 sec) 
 Total Blocks : 262144 Invalid Blocks : 0
Heartbeat CPU 0 instructions: 190000002 cycles: 85027314 heartbeat IPC: 2.1292 cumulative IPC: 2.23458 (Simulation time: 50 hr 2 min 7 sec) 
 Total Blocks : 262144 Invalid Blocks : 0
Heartbeat CPU 2 instructions: 190000002 cycles: 85027351 heartbeat IPC: 2.1292 cumulative IPC: 2.23458 (Simulation time: 50 hr 2 min 7 sec) 
 Total Blocks : 262144 Invalid Blocks : 0
Heartbeat CPU 3 instructions: 190000002 cycles: 85028460 heartbeat IPC: 2.12919 cumulative IPC: 2.23455 (Simulation time: 50 hr 2 min 9 sec) 
 Total Blocks : 262144 Invalid Blocks : 0
Heartbeat CPU 7 instructions: 200000000 cycles: 89723619 heartbeat IPC: 2.12843 cumulative IPC: 2.22907 (Simulation time: 53 hr 29 min 34 sec) 
 Total Blocks : 262144 Invalid Blocks : 0
Heartbeat CPU 1 instructions: 200000000 cycles: 89724099 heartbeat IPC: 2.12843 cumulative IPC: 2.22906 (Simulation time: 53 hr 29 min 36 sec) 
 Total Blocks : 262144 Invalid Blocks : 0
Heartbeat CPU 4 instructions: 200000000 cycles: 89724324 heartbeat IPC: 2.12843 cumulative IPC: 2.22905 (Simulation time: 53 hr 29 min 36 sec) 
 Total Blocks : 262144 Invalid Blocks : 0
Heartbeat CPU 5 instructions: 200000000 cycles: 89725111 heartbeat IPC: 2.12842 cumulative IPC: 2.22903 (Simulation time: 53 hr 29 min 37 sec) 
 Total Blocks : 262144 Invalid Blocks : 0
Heartbeat CPU 6 instructions: 200000000 cycles: 89725457 heartbeat IPC: 2.12841 cumulative IPC: 2.22902 (Simulation time: 53 hr 29 min 37 sec) 
 Total Blocks : 262144 Invalid Blocks : 0
Heartbeat CPU 0 instructions: 200000000 cycles: 89725618 heartbeat IPC: 2.12843 cumulative IPC: 2.22902 (Simulation time: 53 hr 29 min 37 sec) 
 Total Blocks : 262144 Invalid Blocks : 0
Heartbeat CPU 2 instructions: 200000000 cycles: 89725670 heartbeat IPC: 2.12842 cumulative IPC: 2.22902 (Simulation time: 53 hr 29 min 37 sec) 
 Total Blocks : 262144 Invalid Blocks : 0
Heartbeat CPU 3 instructions: 200000000 cycles: 89726808 heartbeat IPC: 2.12841 cumulative IPC: 2.22899 (Simulation time: 53 hr 29 min 42 sec) 
 Total Blocks : 262144 Invalid Blocks : 0

Warmup complete CPU 0 instructions: 200002536 cycles: 89726809 (Simulation time: 53 hr 29 min 42 sec) 
Warmup complete CPU 1 instructions: 200005718 cycles: 89726809 (Simulation time: 53 hr 29 min 42 sec) 
Warmup complete CPU 2 instructions: 200002416 cycles: 89726809 (Simulation time: 53 hr 29 min 42 sec) 
Warmup complete CPU 3 instructions: 200000004 cycles: 89726809 (Simulation time: 53 hr 29 min 42 sec) 
Warmup complete CPU 4 instructions: 200005312 cycles: 89726808 (Simulation time: 53 hr 29 min 42 sec) 
Warmup complete CPU 5 instructions: 200003601 cycles: 89726808 (Simulation time: 53 hr 29 min 42 sec) 
Warmup complete CPU 6 instructions: 200002881 cycles: 89726808 (Simulation time: 53 hr 29 min 42 sec) 
Warmup complete CPU 7 instructions: 200006781 cycles: 89726808 (Simulation time: 53 hr 29 min 42 sec) 

Heartbeat CPU 6 instructions: 210000003 cycles: 99133417 heartbeat IPC: 1.06293 cumulative IPC: 1.06278 (Simulation time: 57 hr 11 min 45 sec) 
 Total Blocks : 262144 Invalid Blocks : 0
Heartbeat CPU 3 instructions: 210000003 cycles: 99133645 heartbeat IPC: 1.06306 cumulative IPC: 1.06306 (Simulation time: 57 hr 11 min 46 sec) 
 Total Blocks : 262144 Invalid Blocks : 0
Heartbeat CPU 7 instructions: 210000003 cycles: 99133759 heartbeat IPC: 1.06268 cumulative IPC: 1.06232 (Simulation time: 57 hr 11 min 47 sec) 
 Total Blocks : 262144 Invalid Blocks : 0
Heartbeat CPU 4 instructions: 210000003 cycles: 99134371 heartbeat IPC: 1.06269 cumulative IPC: 1.06241 (Simulation time: 57 hr 11 min 47 sec) 
 Total Blocks : 262144 Invalid Blocks : 0
Heartbeat CPU 5 instructions: 210000003 cycles: 99136700 heartbeat IPC: 1.06252 cumulative IPC: 1.06233 (Simulation time: 57 hr 11 min 52 sec) 
 Total Blocks : 262144 Invalid Blocks : 0
Heartbeat CPU 1 instructions: 210000000 cycles: 99147332 heartbeat IPC: 1.06121 cumulative IPC: 1.06091 (Simulation time: 57 hr 11 min 59 sec) 
 Total Blocks : 262144 Invalid Blocks : 0
Heartbeat CPU 0 instructions: 210000003 cycles: 99148637 heartbeat IPC: 1.06123 cumulative IPC: 1.0611 (Simulation time: 57 hr 12 min 3 sec) 
 Total Blocks : 262144 Invalid Blocks : 0
Heartbeat CPU 2 instructions: 210000003 cycles: 99165432 heartbeat IPC: 1.05935 cumulative IPC: 1.05922 (Simulation time: 57 hr 12 min 34 sec) 
 Total Blocks : 262144 Invalid Blocks : 0
Heartbeat CPU 6 instructions: 220000000 cycles: 108505648 heartbeat IPC: 1.06698 cumulative IPC: 1.06488 (Simulation time: 60 hr 49 min 50 sec) 
 Total Blocks : 262144 Invalid Blocks : 0
Heartbeat CPU 3 instructions: 220000000 cycles: 108507827 heartbeat IPC: 1.06676 cumulative IPC: 1.0649 (Simulation time: 60 hr 49 min 52 sec) 
 Total Blocks : 262144 Invalid Blocks : 0
Heartbeat CPU 5 instructions: 220000000 cycles: 108521252 heartbeat IPC: 1.06558 cumulative IPC: 1.06395 (Simulation time: 60 hr 50 min 8 sec) 
 Total Blocks : 262144 Invalid Blocks : 0
Heartbeat CPU 4 instructions: 220000000 cycles: 108534768 heartbeat IPC: 1.06378 cumulative IPC: 1.0631 (Simulation time: 60 hr 50 min 48 sec) 
 Total Blocks : 262144 Invalid Blocks : 0
Heartbeat CPU 7 instructions: 220000000 cycles: 108538234 heartbeat IPC: 1.06332 cumulative IPC: 1.06282 (Simulation time: 60 hr 50 min 50 sec) 
 Total Blocks : 262144 Invalid Blocks : 0
Heartbeat CPU 0 instructions: 220000000 cycles: 108549617 heartbeat IPC: 1.06372 cumulative IPC: 1.06241 (Simulation time: 60 hr 51 min 8 sec) 
 Total Blocks : 262144 Invalid Blocks : 0
Heartbeat CPU 2 instructions: 220000000 cycles: 108550648 heartbeat IPC: 1.06551 cumulative IPC: 1.06235 (Simulation time: 60 hr 51 min 9 sec) 
 Total Blocks : 262144 Invalid Blocks : 0
Heartbeat CPU 1 instructions: 220000000 cycles: 108565417 heartbeat IPC: 1.06179 cumulative IPC: 1.06135 (Simulation time: 60 hr 51 min 31 sec) 
 Total Blocks : 262144 Invalid Blocks : 0
Heartbeat CPU 3 instructions: 230000000 cycles: 117896742 heartbeat IPC: 1.06509 cumulative IPC: 1.06497 (Simulation time: 64 hr 23 min 16 sec) 
 Total Blocks : 262144 Invalid Blocks : 0
Heartbeat CPU 6 instructions: 230000000 cycles: 117915194 heartbeat IPC: 1.06275 cumulative IPC: 1.06417 (Simulation time: 64 hr 23 min 48 sec) 
 Total Blocks : 262144 Invalid Blocks : 0
Heartbeat CPU 5 instructions: 230000000 cycles: 117926301 heartbeat IPC: 1.06326 cumulative IPC: 1.06372 (Simulation time: 64 hr 24 min 7 sec) 
 Total Blocks : 262144 Invalid Blocks : 0
Heartbeat CPU 4 instructions: 230000000 cycles: 117944123 heartbeat IPC: 1.06277 cumulative IPC: 1.06299 (Simulation time: 64 hr 24 min 31 sec) 
 Total Blocks : 262144 Invalid Blocks : 0
Heartbeat CPU 0 instructions: 230000000 cycles: 117955013 heartbeat IPC: 1.06322 cumulative IPC: 1.06268 (Simulation time: 64 hr 24 min 49 sec) 
 Total Blocks : 262144 Invalid Blocks : 0
Heartbeat CPU 7 instructions: 230000000 cycles: 117957326 heartbeat IPC: 1.06167 cumulative IPC: 1.06244 (Simulation time: 64 hr 24 min 51 sec) 
 Total Blocks : 262144 Invalid Blocks : 0
Heartbeat CPU 2 instructions: 230000000 cycles: 117973729 heartbeat IPC: 1.06122 cumulative IPC: 1.06198 (Simulation time: 64 hr 25 min 17 sec) 
 Total Blocks : 262144 Invalid Blocks : 0
Heartbeat CPU 1 instructions: 230000000 cycles: 117985787 heartbeat IPC: 1.06153 cumulative IPC: 1.06141 (Simulation time: 64 hr 25 min 48 sec) 
 Total Blocks : 262144 Invalid Blocks : 0
Heartbeat CPU 3 instructions: 240000000 cycles: 127254470 heartbeat IPC: 1.06864 cumulative IPC: 1.06588 (Simulation time: 67 hr 56 min 38 sec) 
 Total Blocks : 262144 Invalid Blocks : 0
Heartbeat CPU 5 instructions: 240000000 cycles: 127287180 heartbeat IPC: 1.06828 cumulative IPC: 1.06486 (Simulation time: 67 hr 57 min 29 sec) 
 Total Blocks : 262144 Invalid Blocks : 0
Heartbeat CPU 6 instructions: 240000000 cycles: 127287595 heartbeat IPC: 1.06696 cumulative IPC: 1.06486 (Simulation time: 67 hr 57 min 32 sec) 
 Total Blocks : 262144 Invalid Blocks : 0
Heartbeat CPU 4 instructions: 240000000 cycles: 127345252 heartbeat IPC: 1.0637 cumulative IPC: 1.06317 (Simulation time: 67 hr 58 min 49 sec) 
 Total Blocks : 262144 Invalid Blocks : 0
Heartbeat CPU 2 instructions: 240000000 cycles: 127358829 heartbeat IPC: 1.06552 cumulative IPC: 1.06286 (Simulation time: 67 hr 59 min 15 sec) 
 Total Blocks : 262144 Invalid Blocks : 0
Heartbeat CPU 0 instructions: 240000000 cycles: 127360659 heartbeat IPC: 1.06319 cumulative IPC: 1.06281 (Simulation time: 67 hr 59 min 19 sec) 
 Total Blocks : 262144 Invalid Blocks : 0
Heartbeat CPU 7 instructions: 240000000 cycles: 127361553 heartbeat IPC: 1.06335 cumulative IPC: 1.06267 (Simulation time: 67 hr 59 min 21 sec) 
 Total Blocks : 262144 Invalid Blocks : 0
Heartbeat CPU 1 instructions: 240000000 cycles: 127376104 heartbeat IPC: 1.06493 cumulative IPC: 1.06229 (Simulation time: 67 hr 59 min 37 sec) 
 Total Blocks : 262144 Invalid Blocks : 0
Heartbeat CPU 5 instructions: 250000000 cycles: 136613955 heartbeat IPC: 1.07218 cumulative IPC: 1.06631 (Simulation time: 71 hr 31 min 8 sec) 
 Total Blocks : 262144 Invalid Blocks : 0
Heartbeat CPU 3 instructions: 250000000 cycles: 136641947 heartbeat IPC: 1.06525 cumulative IPC: 1.06575 (Simulation time: 71 hr 31 min 53 sec) 
 Total Blocks : 262144 Invalid Blocks : 0
Heartbeat CPU 6 instructions: 250000000 cycles: 136689441 heartbeat IPC: 1.06362 cumulative IPC: 1.06461 (Simulation time: 71 hr 32 min 59 sec) 
 Total Blocks : 262144 Invalid Blocks : 0
Heartbeat CPU 4 instructions: 250000000 cycles: 136733760 heartbeat IPC: 1.06513 cumulative IPC: 1.06356 (Simulation time: 71 hr 34 min 3 sec) 
 Total Blocks : 262144 Invalid Blocks : 0
Heartbeat CPU 2 instructions: 250000000 cycles: 136751054 heartbeat IPC: 1.06471 cumulative IPC: 1.06323 (Simulation time: 71 hr 34 min 24 sec) 
 Total Blocks : 262144 Invalid Blocks : 0
Heartbeat CPU 7 instructions: 250000000 cycles: 136764908 heartbeat IPC: 1.06345 cumulative IPC: 1.06282 (Simulation time: 71 hr 34 min 45 sec) 
 Total Blocks : 262144 Invalid Blocks : 0
Heartbeat CPU 0 instructions: 250000000 cycles: 136767819 heartbeat IPC: 1.06302 cumulative IPC: 1.06285 (Simulation time: 71 hr 34 min 47 sec) 
 Total Blocks : 262144 Invalid Blocks : 0
Heartbeat CPU 1 instructions: 250000000 cycles: 136780141 heartbeat IPC: 1.06337 cumulative IPC: 1.0625 (Simulation time: 71 hr 35 min 8 sec) 
 Total Blocks : 262144 Invalid Blocks : 0
Heartbeat CPU 5 instructions: 260000000 cycles: 145897855 heartbeat IPC: 1.07713 cumulative IPC: 1.0681 (Simulation time: 75 hr 8 min 46 sec) 
 Total Blocks : 262144 Invalid Blocks : 0
Heartbeat CPU 3 instructions: 260000000 cycles: 145929053 heartbeat IPC: 1.07676 cumulative IPC: 1.06757 (Simulation time: 75 hr 9 min 32 sec) 
 Total Blocks : 262144 Invalid Blocks : 0
Heartbeat CPU 6 instructions: 260000000 cycles: 145986354 heartbeat IPC: 1.07563 cumulative IPC: 1.06643 (Simulation time: 75 hr 10 min 59 sec) 
 Total Blocks : 262144 Invalid Blocks : 0
Heartbeat CPU 2 instructions: 260000000 cycles: 146061851 heartbeat IPC: 1.07402 cumulative IPC: 1.06501 (Simulation time: 75 hr 12 min 41 sec) 
 Total Blocks : 262144 Invalid Blocks : 0
Heartbeat CPU 4 instructions: 260000000 cycles: 146062239 heartbeat IPC: 1.07199 cumulative IPC: 1.06495 (Simulation time: 75 hr 12 min 42 sec) 
 Total Blocks : 262144 Invalid Blocks : 0
Heartbeat CPU 0 instructions: 260000000 cycles: 146077082 heartbeat IPC: 1.0742 cumulative IPC: 1.06472 (Simulation time: 75 hr 13 min 9 sec) 
 Total Blocks : 262144 Invalid Blocks : 0
Heartbeat CPU 1 instructions: 260000000 cycles: 146091690 heartbeat IPC: 1.07394 cumulative IPC: 1.06439 (Simulation time: 75 hr 13 min 24 sec) 
 Total Blocks : 262144 Invalid Blocks : 0
Heartbeat CPU 7 instructions: 260000000 cycles: 146093560 heartbeat IPC: 1.07197 cumulative IPC: 1.06434 (Simulation time: 75 hr 13 min 31 sec) 
 Total Blocks : 262144 Invalid Blocks : 0
Heartbeat CPU 3 instructions: 270000000 cycles: 155137969 heartbeat IPC: 1.0859 cumulative IPC: 1.07015 (Simulation time: 78 hr 52 min 36 sec) 
 Total Blocks : 262144 Invalid Blocks : 0
Heartbeat CPU 5 instructions: 270000000 cycles: 155139656 heartbeat IPC: 1.08204 cumulative IPC: 1.07007 (Simulation time: 78 hr 52 min 39 sec) 
 Total Blocks : 262144 Invalid Blocks : 0
Heartbeat CPU 6 instructions: 270000000 cycles: 155244726 heartbeat IPC: 1.0801 cumulative IPC: 1.06837 (Simulation time: 78 hr 55 min 22 sec) 
 Total Blocks : 262144 Invalid Blocks : 0
Heartbeat CPU 4 instructions: 270000000 cycles: 155320896 heartbeat IPC: 1.08007 cumulative IPC: 1.06709 (Simulation time: 78 hr 57 min 5 sec) 
 Total Blocks : 262144 Invalid Blocks : 0
Heartbeat CPU 2 instructions: 270000000 cycles: 155323533 heartbeat IPC: 1.07972 cumulative IPC: 1.06709 (Simulation time: 78 hr 57 min 9 sec) 
 Total Blocks : 262144 Invalid Blocks : 0
Heartbeat CPU 0 instructions: 270000000 cycles: 155335745 heartbeat IPC: 1.08007 cumulative IPC: 1.06689 (Simulation time: 78 hr 57 min 30 sec) 
 Total Blocks : 262144 Invalid Blocks : 0
Heartbeat CPU 7 instructions: 270000000 cycles: 155337670 heartbeat IPC: 1.08177 cumulative IPC: 1.06679 (Simulation time: 78 hr 57 min 33 sec) 
 Total Blocks : 262144 Invalid Blocks : 0
Heartbeat CPU 1 instructions: 270000000 cycles: 155351634 heartbeat IPC: 1.07992 cumulative IPC: 1.06658 (Simulation time: 78 hr 57 min 50 sec) 
 Total Blocks : 262144 Invalid Blocks : 0
Heartbeat CPU 3 instructions: 280000003 cycles: 164309499 heartbeat IPC: 1.09033 cumulative IPC: 1.07263 (Simulation time: 82 hr 41 min 38 sec) 
 Total Blocks : 262144 Invalid Blocks : 0
Heartbeat CPU 5 instructions: 280000003 cycles: 164338094 heartbeat IPC: 1.08714 cumulative IPC: 1.07218 (Simulation time: 82 hr 42 min 25 sec) 
 Total Blocks : 262144 Invalid Blocks : 0
Heartbeat CPU 6 instructions: 280000003 cycles: 164461980 heartbeat IPC: 1.08492 cumulative IPC: 1.07041 (Simulation time: 82 hr 45 min 26 sec) 
 Total Blocks : 262144 Invalid Blocks : 0
Heartbeat CPU 2 instructions: 280000003 cycles: 164507818 heartbeat IPC: 1.08882 cumulative IPC: 1.06976 (Simulation time: 82 hr 46 min 33 sec) 
 Total Blocks : 262144 Invalid Blocks : 0
Heartbeat CPU 4 instructions: 280000003 cycles: 164519989 heartbeat IPC: 1.08706 cumulative IPC: 1.06955 (Simulation time: 82 hr 46 min 48 sec) 
 Total Blocks : 262144 Invalid Blocks : 0
Heartbeat CPU 0 instructions: 280000003 cycles: 164568211 heartbeat IPC: 1.08313 cumulative IPC: 1.06889 (Simulation time: 82 hr 47 min 59 sec) 
 Total Blocks : 262144 Invalid Blocks : 0
Heartbeat CPU 7 instructions: 280000003 cycles: 164569438 heartbeat IPC: 1.08322 cumulative IPC: 1.06882 (Simulation time: 82 hr 48 min 3 sec) 
 Total Blocks : 262144 Invalid Blocks : 0
Heartbeat CPU 1 instructions: 280000003 cycles: 164585432 heartbeat IPC: 1.08298 cumulative IPC: 1.0686 (Simulation time: 82 hr 48 min 21 sec) 
 Total Blocks : 262144 Invalid Blocks : 0
Heartbeat CPU 3 instructions: 290000003 cycles: 173439681 heartbeat IPC: 1.09527 cumulative IPC: 1.0751 (Simulation time: 86 hr 37 min 54 sec) 
 Total Blocks : 262144 Invalid Blocks : 0
Heartbeat CPU 5 instructions: 290000003 cycles: 173498415 heartbeat IPC: 1.09166 cumulative IPC: 1.07431 (Simulation time: 86 hr 39 min 28 sec) 
 Total Blocks : 262144 Invalid Blocks : 0
Heartbeat CPU 6 instructions: 290000003 cycles: 173672986 heartbeat IPC: 1.08566 cumulative IPC: 1.07208 (Simulation time: 86 hr 44 min 21 sec) 
 Total Blocks : 262144 Invalid Blocks : 0
Heartbeat CPU 2 instructions: 290000003 cycles: 173687324 heartbeat IPC: 1.08938 cumulative IPC: 1.0719 (Simulation time: 86 hr 44 min 39 sec) 
 Total Blocks : 262144 Invalid Blocks : 0
Heartbeat CPU 4 instructions: 290000003 cycles: 173726375 heartbeat IPC: 1.0862 cumulative IPC: 1.07137 (Simulation time: 86 hr 45 min 50 sec) 
 Total Blocks : 262144 Invalid Blocks : 0
Heartbeat CPU 0 instructions: 290000003 cycles: 173757793 heartbeat IPC: 1.08819 cumulative IPC: 1.071 (Simulation time: 86 hr 46 min 42 sec) 
 Total Blocks : 262144 Invalid Blocks : 0
Heartbeat CPU 7 instructions: 290000003 cycles: 173772137 heartbeat IPC: 1.08664 cumulative IPC: 1.07077 (Simulation time: 86 hr 47 min 2 sec) 
 Total Blocks : 262144 Invalid Blocks : 0
Heartbeat CPU 1 instructions: 290000003 cycles: 173773144 heartbeat IPC: 1.08841 cumulative IPC: 1.07077 (Simulation time: 86 hr 47 min 4 sec) 
 Total Blocks : 262144 Invalid Blocks : 0
Heartbeat CPU 3 instructions: 300000001 cycles: 182502100 heartbeat IPC: 1.10346 cumulative IPC: 1.07787 (Simulation time: 90 hr 45 min 5 sec) 
 Total Blocks : 262144 Invalid Blocks : 0
Heartbeat CPU 5 instructions: 300000001 cycles: 182637842 heartbeat IPC: 1.09416 cumulative IPC: 1.07626 (Simulation time: 90 hr 48 min 53 sec) 
 Total Blocks : 262144 Invalid Blocks : 0
Heartbeat CPU 2 instructions: 300000001 cycles: 182815527 heartbeat IPC: 1.09551 cumulative IPC: 1.07422 (Simulation time: 90 hr 53 min 44 sec) 
 Total Blocks : 262144 Invalid Blocks : 0
Heartbeat CPU 6 instructions: 300000001 cycles: 182816069 heartbeat IPC: 1.09372 cumulative IPC: 1.07421 (Simulation time: 90 hr 53 min 47 sec) 
 Total Blocks : 262144 Invalid Blocks : 0
Heartbeat CPU 4 instructions: 300000001 cycles: 182859771 heartbeat IPC: 1.09488 cumulative IPC: 1.07368 (Simulation time: 90 hr 54 min 57 sec) 
 Total Blocks : 262144 Invalid Blocks : 0
Heartbeat CPU 0 instructions: 300000001 cycles: 182916382 heartbeat IPC: 1.09187 cumulative IPC: 1.07305 (Simulation time: 90 hr 56 min 39 sec) 
 Total Blocks : 262144 Invalid Blocks : 0
Heartbeat CPU 1 instructions: 300000001 cycles: 182927931 heartbeat IPC: 1.09232 cumulative IPC: 1.07289 (Simulation time: 90 hr 56 min 57 sec) 
 Total Blocks : 262144 Invalid Blocks : 0
Heartbeat CPU 7 instructions: 300000001 cycles: 182931425 heartbeat IPC: 1.09179 cumulative IPC: 1.07284 (Simulation time: 90 hr 57 min 3 sec) 
 Total Blocks : 262144 Invalid Blocks : 0
Heartbeat CPU 3 instructions: 310000000 cycles: 191647615 heartbeat IPC: 1.09343 cumulative IPC: 1.07927 (Simulation time: 95 hr 0 min 5 sec) 
 Total Blocks : 262144 Invalid Blocks : 0
Heartbeat CPU 5 instructions: 310000000 cycles: 191790325 heartbeat IPC: 1.0926 cumulative IPC: 1.07772 (Simulation time: 95 hr 4 min 10 sec) 
 Total Blocks : 262144 Invalid Blocks : 0
Heartbeat CPU 6 instructions: 310000000 cycles: 191986336 heartbeat IPC: 1.09048 cumulative IPC: 1.07567 (Simulation time: 95 hr 9 min 32 sec) 
 Total Blocks : 262144 Invalid Blocks : 0
Heartbeat CPU 2 instructions: 310000000 cycles: 191997606 heartbeat IPC: 1.08908 cumulative IPC: 1.07555 (Simulation time: 95 hr 9 min 50 sec) 
 Total Blocks : 262144 Invalid Blocks : 0
Heartbeat CPU 4 instructions: 310000000 cycles: 192028486 heartbeat IPC: 1.09067 cumulative IPC: 1.0752 (Simulation time: 95 hr 10 min 45 sec) 
 Total Blocks : 262144 Invalid Blocks : 0
Heartbeat CPU 0 instructions: 310000000 cycles: 192079203 heartbeat IPC: 1.09137 cumulative IPC: 1.07469 (Simulation time: 95 hr 12 min 18 sec) 
 Total Blocks : 262144 Invalid Blocks : 0
Heartbeat CPU 1 instructions: 310000000 cycles: 192124812 heartbeat IPC: 1.08733 cumulative IPC: 1.07418 (Simulation time: 95 hr 13 min 34 sec) 
 Total Blocks : 262144 Invalid Blocks : 0
Heartbeat CPU 7 instructions: 310000000 cycles: 192135895 heartbeat IPC: 1.08643 cumulative IPC: 1.07406 (Simulation time: 95 hr 13 min 58 sec) 
 Total Blocks : 262144 Invalid Blocks : 0
Heartbeat CPU 3 instructions: 320000003 cycles: 200754418 heartbeat IPC: 1.09808 cumulative IPC: 1.08081 (Simulation time: 99 hr 12 min 29 sec) 
 Total Blocks : 262144 Invalid Blocks : 0
Heartbeat CPU 5 instructions: 320000003 cycles: 200874191 heartbeat IPC: 1.10085 cumulative IPC: 1.07962 (Simulation time: 99 hr 15 min 57 sec) 
 Total Blocks : 262144 Invalid Blocks : 0
Heartbeat CPU 6 instructions: 320000003 cycles: 201099067 heartbeat IPC: 1.09737 cumulative IPC: 1.07744 (Simulation time: 99 hr 22 min 11 sec) 
 Total Blocks : 262144 Invalid Blocks : 0
Heartbeat CPU 2 instructions: 320000003 cycles: 201121311 heartbeat IPC: 1.09605 cumulative IPC: 1.07723 (Simulation time: 99 hr 22 min 47 sec) 
 Total Blocks : 262144 Invalid Blocks : 0
Heartbeat CPU 4 instructions: 320000003 cycles: 201162638 heartbeat IPC: 1.09479 cumulative IPC: 1.07681 (Simulation time: 99 hr 24 min 7 sec) 
 Total Blocks : 262144 Invalid Blocks : 0
Heartbeat CPU 0 instructions: 320000003 cycles: 201216571 heartbeat IPC: 1.09441 cumulative IPC: 1.07631 (Simulation time: 99 hr 25 min 40 sec) 
 Total Blocks : 262144 Invalid Blocks : 0
Heartbeat CPU 7 instructions: 320000003 cycles: 201246443 heartbeat IPC: 1.09763 cumulative IPC: 1.07598 (Simulation time: 99 hr 26 min 38 sec) 
 Total Blocks : 262144 Invalid Blocks : 0
Heartbeat CPU 1 instructions: 320000003 cycles: 201259901 heartbeat IPC: 1.09468 cumulative IPC: 1.07586 (Simulation time: 99 hr 27 min 0 sec) 
 Total Blocks : 262144 Invalid Blocks : 0
Heartbeat CPU 3 instructions: 330000000 cycles: 209956892 heartbeat IPC: 1.08666 cumulative IPC: 1.08126 (Simulation time: 103 hr 33 min 47 sec) 
 Total Blocks : 262144 Invalid Blocks : 0
Heartbeat CPU 5 instructions: 330000000 cycles: 210089081 heartbeat IPC: 1.0852 cumulative IPC: 1.08004 (Simulation time: 103 hr 37 min 38 sec) 
 Total Blocks : 262144 Invalid Blocks : 0
Heartbeat CPU 6 instructions: 330000000 cycles: 210273960 heartbeat IPC: 1.08993 cumulative IPC: 1.07839 (Simulation time: 103 hr 43 min 8 sec) 
 Total Blocks : 262144 Invalid Blocks : 0
Heartbeat CPU 2 instructions: 330000000 cycles: 210319670 heartbeat IPC: 1.08715 cumulative IPC: 1.07799 (Simulation time: 103 hr 44 min 34 sec) 
 Total Blocks : 262144 Invalid Blocks : 0
Heartbeat CPU 4 instructions: 330000000 cycles: 210352950 heartbeat IPC: 1.0881 cumulative IPC: 1.07767 (Simulation time: 103 hr 45 min 35 sec) 
 Total Blocks : 262144 Invalid Blocks : 0
Heartbeat CPU 0 instructions: 330000000 cycles: 210417733 heartbeat IPC: 1.08682 cumulative IPC: 1.07711 (Simulation time: 103 hr 47 min 34 sec) 
 Total Blocks : 262144 Invalid Blocks : 0
Heartbeat CPU 7 instructions: 330000000 cycles: 210448051 heartbeat IPC: 1.08677 cumulative IPC: 1.0768 (Simulation time: 103 hr 48 min 31 sec) 
 Total Blocks : 262144 Invalid Blocks : 0
Heartbeat CPU 1 instructions: 330000000 cycles: 210460722 heartbeat IPC: 1.08686 cumulative IPC: 1.0767 (Simulation time: 103 hr 48 min 52 sec) 
 Total Blocks : 262144 Invalid Blocks : 0
Heartbeat CPU 3 instructions: 340000002 cycles: 219076975 heartbeat IPC: 1.09648 cumulative IPC: 1.08233 (Simulation time: 107 hr 59 min 48 sec) 
 Total Blocks : 262144 Invalid Blocks : 0
Heartbeat CPU 5 instructions: 340000002 cycles: 219209645 heartbeat IPC: 1.09642 cumulative IPC: 1.0812 (Simulation time: 108 hr 3 min 47 sec) 
 Total Blocks : 262144 Invalid Blocks : 0
Heartbeat CPU 6 instructions: 340000002 cycles: 219407094 heartbeat IPC: 1.09491 cumulative IPC: 1.07956 (Simulation time: 108 hr 9 min 54 sec) 
 Total Blocks : 262144 Invalid Blocks : 0
Heartbeat CPU 2 instructions: 340000002 cycles: 219463811 heartbeat IPC: 1.0936 cumulative IPC: 1.07909 (Simulation time: 108 hr 11 min 40 sec) 
 Total Blocks : 262144 Invalid Blocks : 0
Heartbeat CPU 4 instructions: 340000002 cycles: 219494447 heartbeat IPC: 1.09391 cumulative IPC: 1.07881 (Simulation time: 108 hr 12 min 32 sec) 
 Total Blocks : 262144 Invalid Blocks : 0
Heartbeat CPU 0 instructions: 340000002 cycles: 219553862 heartbeat IPC: 1.09456 cumulative IPC: 1.07834 (Simulation time: 108 hr 14 min 21 sec) 
 Total Blocks : 262144 Invalid Blocks : 0
Heartbeat CPU 1 instructions: 340000002 cycles: 219592973 heartbeat IPC: 1.09502 cumulative IPC: 1.07799 (Simulation time: 108 hr 15 min 41 sec) 
 Total Blocks : 262144 Invalid Blocks : 0
Heartbeat CPU 7 instructions: 340000002 cycles: 219594802 heartbeat IPC: 1.09328 cumulative IPC: 1.07797 (Simulation time: 108 hr 15 min 44 sec) 
 Total Blocks : 262144 Invalid Blocks : 0
Heartbeat CPU 3 instructions: 350000001 cycles: 228193857 heartbeat IPC: 1.09687 cumulative IPC: 1.08329 (Simulation time: 112 hr 11 min 41 sec) 
 Total Blocks : 262144 Invalid Blocks : 0
Heartbeat CPU 5 instructions: 350000001 cycles: 228307141 heartbeat IPC: 1.0992 cumulative IPC: 1.08238 (Simulation time: 112 hr 15 min 4 sec) 
 Total Blocks : 262144 Invalid Blocks : 0
Heartbeat CPU 6 instructions: 350000001 cycles: 228475516 heartbeat IPC: 1.10273 cumulative IPC: 1.08107 (Simulation time: 112 hr 19 min 51 sec) 
 Total Blocks : 262144 Invalid Blocks : 0
Heartbeat CPU 2 instructions: 350000001 cycles: 228585819 heartbeat IPC: 1.09625 cumulative IPC: 1.08021 (Simulation time: 112 hr 22 min 54 sec) 
 Total Blocks : 262144 Invalid Blocks : 0
Heartbeat CPU 4 instructions: 350000001 cycles: 228641489 heartbeat IPC: 1.09325 cumulative IPC: 1.07976 (Simulation time: 112 hr 24 min 24 sec) 
 Total Blocks : 262144 Invalid Blocks : 0
Heartbeat CPU 0 instructions: 350000001 cycles: 228688931 heartbeat IPC: 1.09468 cumulative IPC: 1.07941 (Simulation time: 112 hr 25 min 42 sec) 
 Total Blocks : 262144 Invalid Blocks : 0
Heartbeat CPU 1 instructions: 350000001 cycles: 228689555 heartbeat IPC: 1.09931 cumulative IPC: 1.07938 (Simulation time: 112 hr 25 min 45 sec) 
 Total Blocks : 262144 Invalid Blocks : 0
Heartbeat CPU 7 instructions: 350000001 cycles: 228730431 heartbeat IPC: 1.09462 cumulative IPC: 1.07906 (Simulation time: 112 hr 26 min 50 sec) 
 Total Blocks : 262144 Invalid Blocks : 0
Heartbeat CPU 3 instructions: 360000000 cycles: 237376524 heartbeat IPC: 1.08901 cumulative IPC: 1.08365 (Simulation time: 116 hr 17 min 35 sec) 
 Total Blocks : 262144 Invalid Blocks : 0
Heartbeat CPU 5 instructions: 360000000 cycles: 237521161 heartbeat IPC: 1.0853 cumulative IPC: 1.08256 (Simulation time: 116 hr 21 min 27 sec) 
 Total Blocks : 262144 Invalid Blocks : 0
Heartbeat CPU 6 instructions: 360000000 cycles: 237682304 heartbeat IPC: 1.08616 cumulative IPC: 1.08139 (Simulation time: 116 hr 25 min 45 sec) 
 Total Blocks : 262144 Invalid Blocks : 0
Heartbeat CPU 2 instructions: 360000000 cycles: 237813787 heartbeat IPC: 1.08366 cumulative IPC: 1.08043 (Simulation time: 116 hr 29 min 16 sec) 
 Total Blocks : 262144 Invalid Blocks : 0
Heartbeat CPU 4 instructions: 360000000 cycles: 237831158 heartbeat IPC: 1.08818 cumulative IPC: 1.08028 (Simulation time: 116 hr 29 min 42 sec) 
 Total Blocks : 262144 Invalid Blocks : 0
Heartbeat CPU 0 instructions: 360000000 cycles: 237903268 heartbeat IPC: 1.08527 cumulative IPC: 1.07978 (Simulation time: 116 hr 31 min 35 sec) 
 Total Blocks : 262144 Invalid Blocks : 0
Heartbeat CPU 1 instructions: 360000000 cycles: 237933932 heartbeat IPC: 1.08174 cumulative IPC: 1.07953 (Simulation time: 116 hr 32 min 19 sec) 
 Total Blocks : 262144 Invalid Blocks : 0
Heartbeat CPU 7 instructions: 360000000 cycles: 237933954 heartbeat IPC: 1.08654 cumulative IPC: 1.07952 (Simulation time: 116 hr 32 min 20 sec) 
 Total Blocks : 262144 Invalid Blocks : 0
Heartbeat CPU 3 instructions: 370000000 cycles: 246496789 heartbeat IPC: 1.09646 cumulative IPC: 1.08439 (Simulation time: 120 hr 21 min 11 sec) 
 Total Blocks : 262144 Invalid Blocks : 0
Heartbeat CPU 5 instructions: 370000000 cycles: 246623222 heartbeat IPC: 1.09865 cumulative IPC: 1.08349 (Simulation time: 120 hr 24 min 42 sec) 
 Total Blocks : 262144 Invalid Blocks : 0
Heartbeat CPU 6 instructions: 370000000 cycles: 246814866 heartbeat IPC: 1.09498 cumulative IPC: 1.08218 (Simulation time: 120 hr 29 min 51 sec) 
 Total Blocks : 262144 Invalid Blocks : 0
Heartbeat CPU 4 instructions: 370000000 cycles: 246965927 heartbeat IPC: 1.09472 cumulative IPC: 1.08112 (Simulation time: 120 hr 33 min 42 sec) 
 Total Blocks : 262144 Invalid Blocks : 0
Heartbeat CPU 2 instructions: 370000000 cycles: 246982260 heartbeat IPC: 1.09069 cumulative IPC: 1.08103 (Simulation time: 120 hr 34 min 11 sec) 
 Total Blocks : 262144 Invalid Blocks : 0
Heartbeat CPU 0 instructions: 370000000 cycles: 247079102 heartbeat IPC: 1.08982 cumulative IPC: 1.08036 (Simulation time: 120 hr 36 min 48 sec) 
 Total Blocks : 262144 Invalid Blocks : 0
Heartbeat CPU 1 instructions: 370000000 cycles: 247109882 heartbeat IPC: 1.08981 cumulative IPC: 1.08013 (Simulation time: 120 hr 37 min 36 sec) 
 Total Blocks : 262144 Invalid Blocks : 0
Heartbeat CPU 7 instructions: 370000000 cycles: 247110188 heartbeat IPC: 1.08977 cumulative IPC: 1.08012 (Simulation time: 120 hr 37 min 37 sec) 
 Total Blocks : 262144 Invalid Blocks : 0
Heartbeat CPU 3 instructions: 380000003 cycles: 255524341 heartbeat IPC: 1.10772 cumulative IPC: 1.08566 (Simulation time: 124 hr 27 min 40 sec) 
 Total Blocks : 262144 Invalid Blocks : 0
Heartbeat CPU 5 instructions: 380000003 cycles: 255657477 heartbeat IPC: 1.1069 cumulative IPC: 1.08477 (Simulation time: 124 hr 31 min 17 sec) 
 Total Blocks : 262144 Invalid Blocks : 0
Heartbeat CPU 6 instructions: 380000003 cycles: 255820051 heartbeat IPC: 1.11047 cumulative IPC: 1.08371 (Simulation time: 124 hr 35 min 34 sec) 
 Total Blocks : 262144 Invalid Blocks : 0
Heartbeat CPU 4 instructions: 380000003 cycles: 255999500 heartbeat IPC: 1.10698 cumulative IPC: 1.08253 (Simulation time: 124 hr 40 min 19 sec) 
 Total Blocks : 262144 Invalid Blocks : 0
Heartbeat CPU 2 instructions: 380000003 cycles: 256027703 heartbeat IPC: 1.10553 cumulative IPC: 1.08236 (Simulation time: 124 hr 40 min 59 sec) 
 Total Blocks : 262144 Invalid Blocks : 0
Heartbeat CPU 0 instructions: 380000003 cycles: 256141620 heartbeat IPC: 1.10345 cumulative IPC: 1.08162 (Simulation time: 124 hr 44 min 6 sec) 
 Total Blocks : 262144 Invalid Blocks : 0
Heartbeat CPU 7 instructions: 380000003 cycles: 256173029 heartbeat IPC: 1.10341 cumulative IPC: 1.08139 (Simulation time: 124 hr 44 min 59 sec) 
 Total Blocks : 262144 Invalid Blocks : 0
Heartbeat CPU 1 instructions: 380000003 cycles: 256186217 heartbeat IPC: 1.10177 cumulative IPC: 1.08131 (Simulation time: 124 hr 45 min 12 sec) 
 Total Blocks : 262144 Invalid Blocks : 0
Heartbeat CPU 3 instructions: 390000003 cycles: 264604218 heartbeat IPC: 1.10134 cumulative IPC: 1.08648 (Simulation time: 128 hr 36 min 57 sec) 
 Total Blocks : 262144 Invalid Blocks : 0
Heartbeat CPU 5 instructions: 390000003 cycles: 264688809 heartbeat IPC: 1.10726 cumulative IPC: 1.08593 (Simulation time: 128 hr 39 min 15 sec) 
 Total Blocks : 262144 Invalid Blocks : 0
Heartbeat CPU 6 instructions: 390000003 cycles: 264864726 heartbeat IPC: 1.10562 cumulative IPC: 1.08484 (Simulation time: 128 hr 44 min 8 sec) 
 Total Blocks : 262144 Invalid Blocks : 0
Heartbeat CPU 4 instructions: 390000003 cycles: 265056467 heartbeat IPC: 1.10412 cumulative IPC: 1.08364 (Simulation time: 128 hr 49 min 15 sec) 
 Total Blocks : 262144 Invalid Blocks : 0
Heartbeat CPU 2 instructions: 390000003 cycles: 265100121 heartbeat IPC: 1.10224 cumulative IPC: 1.08339 (Simulation time: 128 hr 50 min 27 sec) 
 Total Blocks : 262144 Invalid Blocks : 0
Heartbeat CPU 0 instructions: 390000003 cycles: 265204793 heartbeat IPC: 1.10337 cumulative IPC: 1.08274 (Simulation time: 128 hr 53 min 9 sec) 
 Total Blocks : 262144 Invalid Blocks : 0
Heartbeat CPU 7 instructions: 390000003 cycles: 265251620 heartbeat IPC: 1.10149 cumulative IPC: 1.08243 (Simulation time: 128 hr 54 min 29 sec) 
 Total Blocks : 262144 Invalid Blocks : 0
Heartbeat CPU 1 instructions: 390000003 cycles: 265295702 heartbeat IPC: 1.09776 cumulative IPC: 1.08216 (Simulation time: 128 hr 55 min 37 sec) 
 Total Blocks : 262144 Invalid Blocks : 0
Heartbeat CPU 3 instructions: 400000003 cycles: 273619140 heartbeat IPC: 1.10927 cumulative IPC: 1.08759 (Simulation time: 132 hr 42 min 26 sec) 
 Total Blocks : 262144 Invalid Blocks : 0
Finished CPU 3 instructions: 200000003 cycles: 183892332 cumulative IPC: 1.08759 (Simulation time: 132 hr 42 min 27 sec) 
Heartbeat CPU 5 instructions: 400000003 cycles: 273716445 heartbeat IPC: 1.10771 cumulative IPC: 1.087 (Simulation time: 132 hr 45 min 4 sec) 
 Total Blocks : 262144 Invalid Blocks : 0
Finished CPU 5 instructions: 200000001 cycles: 183992458 cumulative IPC: 1.087 (Simulation time: 132 hr 45 min 7 sec) 
Heartbeat CPU 6 instructions: 400000003 cycles: 273880825 heartbeat IPC: 1.10913 cumulative IPC: 1.08603 (Simulation time: 132 hr 49 min 11 sec) 
 Total Blocks : 262144 Invalid Blocks : 0
Finished CPU 6 instructions: 200000002 cycles: 184156288 cumulative IPC: 1.08603 (Simulation time: 132 hr 49 min 15 sec) 
Heartbeat CPU 4 instructions: 400000003 cycles: 274147574 heartbeat IPC: 1.09998 cumulative IPC: 1.08445 (Simulation time: 132 hr 56 min 0 sec) 
 Total Blocks : 262144 Invalid Blocks : 0
Finished CPU 4 instructions: 200000003 cycles: 184424997 cumulative IPC: 1.08445 (Simulation time: 132 hr 56 min 6 sec) 
Heartbeat CPU 2 instructions: 400000003 cycles: 274191503 heartbeat IPC: 1.09994 cumulative IPC: 1.08421 (Simulation time: 132 hr 57 min 7 sec) 
 Total Blocks : 262144 Invalid Blocks : 0
Finished CPU 2 instructions: 200000002 cycles: 184466649 cumulative IPC: 1.08421 (Simulation time: 132 hr 57 min 13 sec) 
Heartbeat CPU 0 instructions: 400000003 cycles: 274236574 heartbeat IPC: 1.1072 cumulative IPC: 1.08394 (Simulation time: 132 hr 58 min 15 sec) 
 Total Blocks : 262144 Invalid Blocks : 0
Finished CPU 0 instructions: 200000001 cycles: 184511778 cumulative IPC: 1.08394 (Simulation time: 132 hr 58 min 15 sec) 
Heartbeat CPU 7 instructions: 400000003 cycles: 274327739 heartbeat IPC: 1.10179 cumulative IPC: 1.08338 (Simulation time: 133 hr 0 min 34 sec) 
 Total Blocks : 262144 Invalid Blocks : 0
Finished CPU 7 instructions: 200000001 cycles: 184606293 cumulative IPC: 1.08339 (Simulation time: 133 hr 0 min 40 sec) 
Heartbeat CPU 1 instructions: 400000003 cycles: 274371338 heartbeat IPC: 1.10185 cumulative IPC: 1.08313 (Simulation time: 133 hr 1 min 45 sec) 
 Total Blocks : 262144 Invalid Blocks : 0
Finished CPU 1 instructions: 200000000 cycles: 184649046 cumulative IPC: 1.08314 (Simulation time: 133 hr 1 min 52 sec) 

CPU 0 Branch Prediction Accuracy: 99.9303% MPKI: 0.0350087 Average ROB Occupancy at Mispredict: 340.609

CPU 1 Branch Prediction Accuracy: 99.9303% MPKI: 0.035009 Average ROB Occupancy at Mispredict: 340.611

CPU 2 Branch Prediction Accuracy: 99.9303% MPKI: 0.035026 Average ROB Occupancy at Mispredict: 340.616

CPU 3 Branch Prediction Accuracy: 99.9303% MPKI: 0.0350179 Average ROB Occupancy at Mispredict: 340.588

CPU 4 Branch Prediction Accuracy: 99.9303% MPKI: 0.0350265 Average ROB Occupancy at Mispredict: 340.572

CPU 5 Branch Prediction Accuracy: 99.9303% MPKI: 0.0350226 Average ROB Occupancy at Mispredict: 340.591

CPU 6 Branch Prediction Accuracy: 99.9303% MPKI: 0.0350233 Average ROB Occupancy at Mispredict: 340.548

CPU 7 Branch Prediction Accuracy: 99.9303% MPKI: 0.0350106 Average ROB Occupancy at Mispredict: 340.626

ChampSim completed all CPUs

Total Simulation Statistics (not including warmup)

CPU 0 cumulative IPC: 1.08394 instructions: 200147569 cycles: 184649046
ITLB TOTAL     ACCESS: 37329330  HIT: 37329330  MISS:     0  HIT %:   100  MISS %:     0  AVERAGE MISS PENALTY: 0
ITLB LOAD      ACCESS: 37329330  HIT: 37329330  MISS:     0  HIT %:   100  MISS %:     0  AVERAGE MISS PENALTY: 0
ITLB RFO       ACCESS:     0  HIT:     0  MISS:     0  HIT %:     0  MISS %:     0  AVERAGE MISS PENALTY: 0
ITLB PREFETCH  ACCESS:     0  HIT:     0  MISS:     0  HIT %:     0  MISS %:     0  AVERAGE MISS PENALTY: 0
ITLB WRITEBACK ACCESS:     0  HIT:     0  MISS:     0  HIT %:     0  MISS %:     0  AVERAGE MISS PENALTY: 0

DTLB TOTAL     ACCESS: 58836464  HIT: 58753723  MISS: 82741  HIT %: 99.8594  MISS %: 0.140629  AVERAGE MISS PENALTY: 187.886
DTLB LOAD      ACCESS: 52158724  HIT: 52076374  MISS: 82350  HIT %: 99.8421  MISS %: 0.157883  AVERAGE MISS PENALTY: 188.338
DTLB RFO       ACCESS: 6677740  HIT: 6677349  MISS:   391  HIT %: 99.9941  MISS %: 0.00585527  AVERAGE MISS PENALTY: 92.6292
DTLB PREFETCH  ACCESS:     0  HIT:     0  MISS:     0  HIT %:     0  MISS %:     0  AVERAGE MISS PENALTY: 0
DTLB WRITEBACK ACCESS:     0  HIT:     0  MISS:     0  HIT %:     0  MISS %:     0  AVERAGE MISS PENALTY: 0

STLB TOTAL     ACCESS: 82741  HIT: 16952  MISS: 65789  HIT %: 20.488  MISS %: 79.512  AVERAGE MISS PENALTY: 100
STLB LOAD      ACCESS: 82350  HIT: 16886  MISS: 65464  HIT %: 20.5052  MISS %: 79.4948  AVERAGE MISS PENALTY: 100
STLB RFO       ACCESS:   391  HIT:    66  MISS:   325  HIT %: 16.8798  MISS %: 83.1202  AVERAGE MISS PENALTY: 100
STLB PREFETCH  ACCESS:     0  HIT:     0  MISS:     0  HIT %:     0  MISS %:     0  AVERAGE MISS PENALTY: 0
STLB WRITEBACK ACCESS:     0  HIT:     0  MISS:     0  HIT %:     0  MISS %:     0  AVERAGE MISS PENALTY: 0

L1D TOTAL     ACCESS: 65446780  HIT: 62753203  MISS: 2693577  HIT %: 95.8843  MISS %: 4.11568  AVERAGE MISS PENALTY: 2.25234e+06
L1D LOAD      ACCESS: 51132901  HIT: 50998941  MISS: 133960  HIT %: 99.738  MISS %: 0.261984  AVERAGE MISS PENALTY: 4.52873e+07
L1D RFO       ACCESS: 6707380  HIT: 6687038  MISS: 20342  HIT %: 99.6967  MISS %: 0.303278  AVERAGE MISS PENALTY: 348.728
L1D PREFETCH  ACCESS: 7606499  HIT: 5067224  MISS: 2539275  HIT %: 66.617  MISS %: 33.383  AVERAGE MISS PENALTY: 66.4471
L1D WRITEBACK ACCESS:     0  HIT:     0  MISS:     0  HIT %:     0  MISS %:     0  AVERAGE MISS PENALTY: 0

L1I TOTAL     ACCESS: 48053094  HIT: 48053094  MISS:     0  HIT %:   100  MISS %:     0  AVERAGE MISS PENALTY: 0
L1I LOAD      ACCESS: 48053094  HIT: 48053094  MISS:     0  HIT %:   100  MISS %:     0  AVERAGE MISS PENALTY: 0
L1I RFO       ACCESS:     0  HIT:     0  MISS:     0  HIT %:     0  MISS %:     0  AVERAGE MISS PENALTY: 0
L1I PREFETCH  ACCESS:     0  HIT:     0  MISS:     0  HIT %:     0  MISS %:     0  AVERAGE MISS PENALTY: 0
L1I WRITEBACK ACCESS:     0  HIT:     0  MISS:     0  HIT %:     0  MISS %:     0  AVERAGE MISS PENALTY: 0

L2C TOTAL     ACCESS: 6373617  HIT: 3642307  MISS: 2731310  HIT %: 57.1466  MISS %: 42.8534  AVERAGE MISS PENALTY: 2.07559e+06
L2C LOAD      ACCESS: 131108  HIT: 11888  MISS: 119220  HIT %: 9.06733  MISS %: 90.9327  AVERAGE MISS PENALTY: 4.75439e+07
L2C RFO       ACCESS: 20342  HIT:   597  MISS: 19745  HIT %: 2.93481  MISS %: 97.0652  AVERAGE MISS PENALTY: 342.167
L2C PREFETCH  ACCESS: 6172923  HIT: 3594886  MISS: 2578037  HIT %: 58.2364  MISS %: 41.7636  AVERAGE MISS PENALTY: 341.983
L2C WRITEBACK ACCESS: 49244  HIT: 34936  MISS: 14308  HIT %: 70.9447  MISS %: 29.0553  AVERAGE MISS PENALTY: 0


LLC0 TOTAL     ACCESS: 340442  HIT: 30371  MISS: 310071  HIT %: 8.92105  MISS %: 91.079  AVERAGE MISS PENALTY: 338.059
LLC0 LOAD      ACCESS: 44998  HIT:  4821  MISS: 40177  HIT %: 10.7138  MISS %: 89.2862  AVERAGE MISS PENALTY: 334.746
LLC0 RFO       ACCESS:  2462  HIT:     1  MISS:  2461  HIT %: 0.0406174  MISS %: 99.9594  AVERAGE MISS PENALTY: 305.242
LLC0 PREFETCH  ACCESS: 290166  HIT: 24173  MISS: 265993  HIT %: 8.33075  MISS %: 91.6693  AVERAGE MISS PENALTY: 340.693
LLC0 WRITEBACK ACCESS:  2816  HIT:  1376  MISS:  1440  HIT %: 48.8636  MISS %: 51.1364  AVERAGE MISS PENALTY: 0

LLC1 TOTAL     ACCESS: 341515  HIT: 33712  MISS: 307803  HIT %: 9.87131  MISS %: 90.1287  AVERAGE MISS PENALTY: 332.368
LLC1 LOAD      ACCESS:  6189  HIT:   739  MISS:  5450  HIT %: 11.9405  MISS %: 88.0595  AVERAGE MISS PENALTY: 386.97
LLC1 RFO       ACCESS:  2459  HIT:     3  MISS:  2456  HIT %: 0.122001  MISS %: 99.878  AVERAGE MISS PENALTY: 294.51
LLC1 PREFETCH  ACCESS: 329847  HIT: 31254  MISS: 298593  HIT %: 9.4753  MISS %: 90.5247  AVERAGE MISS PENALTY: 333.134
LLC1 WRITEBACK ACCESS:  3020  HIT:  1716  MISS:  1304  HIT %: 56.8212  MISS %: 43.1788  AVERAGE MISS PENALTY: 0

LLC2 TOTAL     ACCESS: 342296  HIT: 35254  MISS: 307042  HIT %: 10.2993  MISS %: 89.7007  AVERAGE MISS PENALTY: 375.221
LLC2 LOAD      ACCESS:  6005  HIT:   731  MISS:  5274  HIT %: 12.1732  MISS %: 87.8268  AVERAGE MISS PENALTY: 359.246
LLC2 RFO       ACCESS:  2450  HIT:     0  MISS:  2450  HIT %:     0  MISS %:   100  AVERAGE MISS PENALTY: 312.383
LLC2 PREFETCH  ACCESS: 331084  HIT: 32961  MISS: 298123  HIT %: 9.95548  MISS %: 90.0445  AVERAGE MISS PENALTY: 377.524
LLC2 WRITEBACK ACCESS:  2757  HIT:  1562  MISS:  1195  HIT %: 56.6558  MISS %: 43.3442  AVERAGE MISS PENALTY: 0

LLC3 TOTAL     ACCESS: 343006  HIT: 35656  MISS: 307350  HIT %: 10.3952  MISS %: 89.6048  AVERAGE MISS PENALTY: 374.186
LLC3 LOAD      ACCESS:  6065  HIT:   762  MISS:  5303  HIT %: 12.5639  MISS %: 87.4361  AVERAGE MISS PENALTY: 369.003
LLC3 RFO       ACCESS:  2446  HIT:     1  MISS:  2445  HIT %: 0.0408831  MISS %: 99.9591  AVERAGE MISS PENALTY: 299.811
LLC3 PREFETCH  ACCESS: 331556  HIT: 33206  MISS: 298350  HIT %: 10.0152  MISS %: 89.9848  AVERAGE MISS PENALTY: 376.458
LLC3 WRITEBACK ACCESS:  2939  HIT:  1687  MISS:  1252  HIT %: 57.4005  MISS %: 42.5995  AVERAGE MISS PENALTY: 0

LLC4 TOTAL     ACCESS: 343216  HIT: 35747  MISS: 307469  HIT %: 10.4153  MISS %: 89.5847  AVERAGE MISS PENALTY: 331.199
LLC4 LOAD      ACCESS:  5849  HIT:   637  MISS:  5212  HIT %: 10.8908  MISS %: 89.1092  AVERAGE MISS PENALTY: 386.96
LLC4 RFO       ACCESS:  2441  HIT:     0  MISS:  2441  HIT %:     0  MISS %:   100  AVERAGE MISS PENALTY: 306.755
LLC4 PREFETCH  ACCESS: 332158  HIT: 33590  MISS: 298568  HIT %: 10.1127  MISS %: 89.8873  AVERAGE MISS PENALTY: 331.81
LLC4 WRITEBACK ACCESS:  2768  HIT:  1520  MISS:  1248  HIT %: 54.9133  MISS %: 45.0867  AVERAGE MISS PENALTY: 0

LLC5 TOTAL     ACCESS: 343341  HIT: 35914  MISS: 307427  HIT %: 10.4602  MISS %: 89.5398  AVERAGE MISS PENALTY: 326.565
LLC5 LOAD      ACCESS:  5997  HIT:   739  MISS:  5258  HIT %: 12.3228  MISS %: 87.6772  AVERAGE MISS PENALTY: 384.469
LLC5 RFO       ACCESS:  2441  HIT:     0  MISS:  2441  HIT %:     0  MISS %:   100  AVERAGE MISS PENALTY: 308.218
LLC5 PREFETCH  ACCESS: 331987  HIT: 33557  MISS: 298430  HIT %: 10.1079  MISS %: 89.8921  AVERAGE MISS PENALTY: 327.116
LLC5 WRITEBACK ACCESS:  2916  HIT:  1618  MISS:  1298  HIT %: 55.487  MISS %: 44.513  AVERAGE MISS PENALTY: 0

LLC6 TOTAL     ACCESS: 343078  HIT: 35253  MISS: 307825  HIT %: 10.2755  MISS %: 89.7245  AVERAGE MISS PENALTY: 362.399
LLC6 LOAD      ACCESS:  5918  HIT:   694  MISS:  5224  HIT %: 11.7269  MISS %: 88.2731  AVERAGE MISS PENALTY: 362.996
LLC6 RFO       ACCESS:  2443  HIT:     2  MISS:  2441  HIT %: 0.0818666  MISS %: 99.9181  AVERAGE MISS PENALTY: 311.479
LLC6 PREFETCH  ACCESS: 331850  HIT: 33022  MISS: 298828  HIT %: 9.95088  MISS %: 90.0491  AVERAGE MISS PENALTY: 364.42
LLC6 WRITEBACK ACCESS:  2867  HIT:  1535  MISS:  1332  HIT %: 53.5403  MISS %: 46.4597  AVERAGE MISS PENALTY: 0

LLC7 TOTAL     ACCESS: 343318  HIT: 34773  MISS: 308545  HIT %: 10.1285  MISS %: 89.8715  AVERAGE MISS PENALTY: 361.216
LLC7 LOAD      ACCESS:  5876  HIT:   579  MISS:  5297  HIT %: 9.85364  MISS %: 90.1464  AVERAGE MISS PENALTY: 365.474
LLC7 RFO       ACCESS:  2603  HIT:   125  MISS:  2478  HIT %: 4.80215  MISS %: 95.1978  AVERAGE MISS PENALTY: 305.142
LLC7 PREFETCH  ACCESS: 331711  HIT: 32349  MISS: 299362  HIT %: 9.75216  MISS %: 90.2478  AVERAGE MISS PENALTY: 363.304
LLC7 WRITEBACK ACCESS:  3128  HIT:  1720  MISS:  1408  HIT %: 54.9872  MISS %: 45.0128  AVERAGE MISS PENALTY: 0

Total Rob stall cycles : 	138406450
Total Load Rob Stall cycles : 	43773066
Average Rob Stall cycles : 	 8
Average Load Rob Stall cycles : 	 12

CPU 1 cumulative IPC: 1.08314 instructions: 200000000 cycles: 184649046
ITLB TOTAL     ACCESS: 37302143  HIT: 37302143  MISS:     0  HIT %:   100  MISS %:     0  AVERAGE MISS PENALTY: 0
ITLB LOAD      ACCESS: 37302143  HIT: 37302143  MISS:     0  HIT %:   100  MISS %:     0  AVERAGE MISS PENALTY: 0
ITLB RFO       ACCESS:     0  HIT:     0  MISS:     0  HIT %:     0  MISS %:     0  AVERAGE MISS PENALTY: 0
ITLB PREFETCH  ACCESS:     0  HIT:     0  MISS:     0  HIT %:     0  MISS %:     0  AVERAGE MISS PENALTY: 0
ITLB WRITEBACK ACCESS:     0  HIT:     0  MISS:     0  HIT %:     0  MISS %:     0  AVERAGE MISS PENALTY: 0

DTLB TOTAL     ACCESS: 58792184  HIT: 58709498  MISS: 82686  HIT %: 99.8594  MISS %: 0.140641  AVERAGE MISS PENALTY: 187.811
DTLB LOAD      ACCESS: 52119720  HIT: 52037427  MISS: 82293  HIT %: 99.8421  MISS %: 0.157892  AVERAGE MISS PENALTY: 188.268
DTLB RFO       ACCESS: 6672464  HIT: 6672071  MISS:   393  HIT %: 99.9941  MISS %: 0.00588988  AVERAGE MISS PENALTY: 92.2036
DTLB PREFETCH  ACCESS:     0  HIT:     0  MISS:     0  HIT %:     0  MISS %:     0  AVERAGE MISS PENALTY: 0
DTLB WRITEBACK ACCESS:     0  HIT:     0  MISS:     0  HIT %:     0  MISS %:     0  AVERAGE MISS PENALTY: 0

STLB TOTAL     ACCESS: 82686  HIT: 16952  MISS: 65734  HIT %: 20.5017  MISS %: 79.4983  AVERAGE MISS PENALTY: 100
STLB LOAD      ACCESS: 82293  HIT: 16884  MISS: 65409  HIT %: 20.5169  MISS %: 79.4831  AVERAGE MISS PENALTY: 100
STLB RFO       ACCESS:   393  HIT:    68  MISS:   325  HIT %: 17.3028  MISS %: 82.6972  AVERAGE MISS PENALTY: 100
STLB PREFETCH  ACCESS:     0  HIT:     0  MISS:     0  HIT %:     0  MISS %:     0  AVERAGE MISS PENALTY: 0
STLB WRITEBACK ACCESS:     0  HIT:     0  MISS:     0  HIT %:     0  MISS %:     0  AVERAGE MISS PENALTY: 0

L1D TOTAL     ACCESS: 65394690  HIT: 62703118  MISS: 2691572  HIT %: 95.8841  MISS %: 4.11589  AVERAGE MISS PENALTY: 2.30212e+06
L1D LOAD      ACCESS: 51093621  HIT: 50959181  MISS: 134440  HIT %: 99.7369  MISS %: 0.263125  AVERAGE MISS PENALTY: 4.60886e+07
L1D RFO       ACCESS: 6702393  HIT: 6682051  MISS: 20342  HIT %: 99.6965  MISS %: 0.303504  AVERAGE MISS PENALTY: 344.811
L1D PREFETCH  ACCESS: 7598676  HIT: 5061886  MISS: 2536790  HIT %: 66.6154  MISS %: 33.3846  AVERAGE MISS PENALTY: 67.4086
L1D WRITEBACK ACCESS:     0  HIT:     0  MISS:     0  HIT %:     0  MISS %:     0  AVERAGE MISS PENALTY: 0

L1I TOTAL     ACCESS: 48018434  HIT: 48018434  MISS:     0  HIT %:   100  MISS %:     0  AVERAGE MISS PENALTY: 0
L1I LOAD      ACCESS: 48018434  HIT: 48018434  MISS:     0  HIT %:   100  MISS %:     0  AVERAGE MISS PENALTY: 0
L1I RFO       ACCESS:     0  HIT:     0  MISS:     0  HIT %:     0  MISS %:     0  AVERAGE MISS PENALTY: 0
L1I PREFETCH  ACCESS:     0  HIT:     0  MISS:     0  HIT %:     0  MISS %:     0  AVERAGE MISS PENALTY: 0
L1I WRITEBACK ACCESS:     0  HIT:     0  MISS:     0  HIT %:     0  MISS %:     0  AVERAGE MISS PENALTY: 0

L2C TOTAL     ACCESS: 6342282  HIT: 3613170  MISS: 2729112  HIT %: 56.9696  MISS %: 43.0304  AVERAGE MISS PENALTY: 2.12157e+06
L2C LOAD      ACCESS: 131582  HIT: 11849  MISS: 119733  HIT %: 9.00503  MISS %: 90.995  AVERAGE MISS PENALTY: 4.835e+07
L2C RFO       ACCESS: 20342  HIT:   603  MISS: 19739  HIT %: 2.96431  MISS %: 97.0357  AVERAGE MISS PENALTY: 338.217
L2C PREFETCH  ACCESS: 6141187  HIT: 3565921  MISS: 2575266  HIT %: 58.0657  MISS %: 41.9343  AVERAGE MISS PENALTY: 346.449
L2C WRITEBACK ACCESS: 49171  HIT: 34797  MISS: 14374  HIT %: 70.7673  MISS %: 29.2327  AVERAGE MISS PENALTY: 0


LLC0 TOTAL     ACCESS: 340111  HIT: 30003  MISS: 310108  HIT %: 8.82153  MISS %: 91.1785  AVERAGE MISS PENALTY: 342.178
LLC0 LOAD      ACCESS: 44980  HIT:  4828  MISS: 40152  HIT %: 10.7337  MISS %: 89.2663  AVERAGE MISS PENALTY: 338.858
LLC0 RFO       ACCESS:  2462  HIT:     1  MISS:  2461  HIT %: 0.0406174  MISS %: 99.9594  AVERAGE MISS PENALTY: 301.346
LLC0 PREFETCH  ACCESS: 289851  HIT: 23810  MISS: 266041  HIT %: 8.21457  MISS %: 91.7854  AVERAGE MISS PENALTY: 344.927
LLC0 WRITEBACK ACCESS:  2818  HIT:  1364  MISS:  1454  HIT %: 48.4031  MISS %: 51.5969  AVERAGE MISS PENALTY: 0

LLC1 TOTAL     ACCESS: 341321  HIT: 33515  MISS: 307806  HIT %: 9.8192  MISS %: 90.1808  AVERAGE MISS PENALTY: 337.005
LLC1 LOAD      ACCESS:  6196  HIT:   755  MISS:  5441  HIT %: 12.1853  MISS %: 87.8147  AVERAGE MISS PENALTY: 392.974
LLC1 RFO       ACCESS:  2457  HIT:     1  MISS:  2456  HIT %: 0.0407  MISS %: 99.9593  AVERAGE MISS PENALTY: 303.467
LLC1 PREFETCH  ACCESS: 329575  HIT: 31054  MISS: 298521  HIT %: 9.42244  MISS %: 90.5776  AVERAGE MISS PENALTY: 337.828
LLC1 WRITEBACK ACCESS:  3093  HIT:  1705  MISS:  1388  HIT %: 55.1245  MISS %: 44.8755  AVERAGE MISS PENALTY: 0

LLC2 TOTAL     ACCESS: 342061  HIT: 34865  MISS: 307196  HIT %: 10.1926  MISS %: 89.8074  AVERAGE MISS PENALTY: 379.801
LLC2 LOAD      ACCESS:  6010  HIT:   701  MISS:  5309  HIT %: 11.6639  MISS %: 88.3361  AVERAGE MISS PENALTY: 375.166
LLC2 RFO       ACCESS:  2450  HIT:     0  MISS:  2450  HIT %:     0  MISS %:   100  AVERAGE MISS PENALTY: 309.215
LLC2 PREFETCH  ACCESS: 330860  HIT: 32632  MISS: 298228  HIT %: 9.86278  MISS %: 90.1372  AVERAGE MISS PENALTY: 382.004
LLC2 WRITEBACK ACCESS:  2741  HIT:  1532  MISS:  1209  HIT %: 55.892  MISS %: 44.108  AVERAGE MISS PENALTY: 0

LLC3 TOTAL     ACCESS: 342687  HIT: 35728  MISS: 306959  HIT %: 10.4258  MISS %: 89.5742  AVERAGE MISS PENALTY: 378.145
LLC3 LOAD      ACCESS:  6068  HIT:   799  MISS:  5269  HIT %: 13.1674  MISS %: 86.8326  AVERAGE MISS PENALTY: 365.149
LLC3 RFO       ACCESS:  2445  HIT:     0  MISS:  2445  HIT %:     0  MISS %:   100  AVERAGE MISS PENALTY: 309.641
LLC3 PREFETCH  ACCESS: 331214  HIT: 33213  MISS: 298001  HIT %: 10.0277  MISS %: 89.9723  AVERAGE MISS PENALTY: 380.516
LLC3 WRITEBACK ACCESS:  2960  HIT:  1716  MISS:  1244  HIT %: 57.973  MISS %: 42.027  AVERAGE MISS PENALTY: 0

LLC4 TOTAL     ACCESS: 342915  HIT: 35381  MISS: 307534  HIT %: 10.3177  MISS %: 89.6823  AVERAGE MISS PENALTY: 334.985
[...]
 USEFUL LOAD PREFETCHES:        542 PREFETCH ISSUED TO LOWER LEVEL:    2398827  ACCURACY: 0.0225944
 TIMELY PREFETCHES:        542 LATE PREFETCHES: 0 DROPPED PREFETCHES: 0
LLC1 AVERAGE MISS LATENCY: 330.246 cycles
LLC2 TOTAL     ACCESS: 341948  HIT: 35136  MISS: 306812  HIT %: 10.2752  MISS %: 89.7248  AVERAGE MISS PENALTY: 369.254
LLC2 LOAD      ACCESS:  5991  HIT:   748  MISS:  5243  HIT %: 12.4854  MISS %: 87.5146  AVERAGE MISS PENALTY: 323.559
LLC2 RFO       ACCESS:  2450  HIT:     0  MISS:  2450  HIT %:     0  MISS %:   100  AVERAGE MISS PENALTY: 317.342
LLC2 PREFETCH  ACCESS: 330754  HIT: 32870  MISS: 297884  HIT %: 9.9379  MISS %: 90.0621  AVERAGE MISS PENALTY: 372.016
LLC2 WRITEBACK ACCESS:  2753  HIT:  1518  MISS:  1235  HIT %: 55.1398  MISS %: 44.8602  AVERAGE MISS PENALTY: 0
LLC2 PREFETCH  REQUESTED:     0  ISSUED:     0  USEFUL:   547  USELESS: 2387556
 USEFUL LOAD PREFETCHES:        547 PREFETCH ISSUED TO LOWER LEVEL:    2400267  ACCURACY: 0.0227891
 TIMELY PREFETCHES:        547 LATE PREFETCHES: 0 DROPPED PREFETCHES: 0
LLC2 AVERAGE MISS LATENCY: 369.254 cycles
LLC3 TOTAL     ACCESS: 342647  HIT: 35482  MISS: 307165  HIT %: 10.3553  MISS %: 89.6447  AVERAGE MISS PENALTY: 368.212
LLC3 LOAD      ACCESS:  6074  HIT:   768  MISS:  5306  HIT %: 12.6441  MISS %: 87.3559  AVERAGE MISS PENALTY: 322.356
LLC3 RFO       ACCESS:  2445  HIT:     0  MISS:  2445  HIT %:     0  MISS %:   100  AVERAGE MISS PENALTY: 331.623
LLC3 PREFETCH  ACCESS: 331180  HIT: 33043  MISS: 298137  HIT %: 9.97735  MISS %: 90.0226  AVERAGE MISS PENALTY: 370.905
LLC3 WRITEBACK ACCESS:  2948  HIT:  1671  MISS:  1277  HIT %: 56.6825  MISS %: 43.3175  AVERAGE MISS PENALTY: 0
LLC3 PREFETCH  REQUESTED:     0  ISSUED:     0  USEFUL:   562  USELESS: 2387548
 USEFUL LOAD PREFETCHES:        562 PREFETCH ISSUED TO LOWER LEVEL:    2405401  ACCURACY: 0.0233641
 TIMELY PREFETCHES:        562 LATE PREFETCHES: 0 DROPPED PREFETCHES: 0
LLC3 AVERAGE MISS LATENCY: 368.212 cycles
LLC4 TOTAL     ACCESS: 342843  HIT: 35479  MISS: 307364  HIT %: 10.3485  MISS %: 89.6515  AVERAGE MISS PENALTY: 329.285
LLC4 LOAD      ACCESS:  5832  HIT:   631  MISS:  5201  HIT %: 10.8196  MISS %: 89.1804  AVERAGE MISS PENALTY: 351.033
LLC4 RFO       ACCESS:  2441  HIT:     1  MISS:  2440  HIT %: 0.0409668  MISS %: 99.959  AVERAGE MISS PENALTY: 332.012
LLC4 PREFETCH  ACCESS: 331795  HIT: 33327  MISS: 298468  HIT %: 10.0445  MISS %: 89.9555  AVERAGE MISS PENALTY: 330.268
LLC4 WRITEBACK ACCESS:  2775  HIT:  1520  MISS:  1255  HIT %: 54.7748  MISS %: 45.2252  AVERAGE MISS PENALTY: 0
LLC4 PREFETCH  REQUESTED:     0  ISSUED:     0  USEFUL:   521  USELESS: 2391517
 USEFUL LOAD PREFETCHES:        521 PREFETCH ISSUED TO LOWER LEVEL:    2409861  ACCURACY: 0.0216195
 TIMELY PREFETCHES:        521 LATE PREFETCHES: 0 DROPPED PREFETCHES: 0
LLC4 AVERAGE MISS LATENCY: 329.285 cycles
LLC5 TOTAL     ACCESS: 342976  HIT: 35484  MISS: 307492  HIT %: 10.3459  MISS %: 89.6541  AVERAGE MISS PENALTY: 324.545
LLC5 LOAD      ACCESS:  6008  HIT:   750  MISS:  5258  HIT %: 12.4834  MISS %: 87.5166  AVERAGE MISS PENALTY: 358.61
LLC5 RFO       ACCESS:  2441  HIT:     1  MISS:  2440  HIT %: 0.0409668  MISS %: 99.959  AVERAGE MISS PENALTY: 334.568
LLC5 PREFETCH  ACCESS: 331579  HIT: 33075  MISS: 298504  HIT %: 9.975  MISS %: 90.025  AVERAGE MISS PENALTY: 325.265
LLC5 WRITEBACK ACCESS:  2948  HIT:  1658  MISS:  1290  HIT %: 56.2415  MISS %: 43.7585  AVERAGE MISS PENALTY: 0
LLC5 PREFETCH  REQUESTED:     0  ISSUED:     0  USEFUL:   594  USELESS: 2390108
 USEFUL LOAD PREFETCHES:        594 PREFETCH ISSUED TO LOWER LEVEL:    2408590  ACCURACY: 0.0246617
 TIMELY PREFETCHES:        594 LATE PREFETCHES: 0 DROPPED PREFETCHES: 0
LLC5 AVERAGE MISS LATENCY: 324.545 cycles
LLC6 TOTAL     ACCESS: 342754  HIT: 34914  MISS: 307840  HIT %: 10.1863  MISS %: 89.8137  AVERAGE MISS PENALTY: 356.957
LLC6 LOAD      ACCESS:  5926  HIT:   726  MISS:  5200  HIT %: 12.2511  MISS %: 87.7489  AVERAGE MISS PENALTY: 321.958
LLC6 RFO       ACCESS:  2441  HIT:     0  MISS:  2441  HIT %:     0  MISS %:   100  AVERAGE MISS PENALTY: 331.583
LLC6 PREFETCH  ACCESS: 331498  HIT: 32660  MISS: 298838  HIT %: 9.85225  MISS %: 90.1478  AVERAGE MISS PENALTY: 359.399
LLC6 WRITEBACK ACCESS:  2889  HIT:  1528  MISS:  1361  HIT %: 52.8903  MISS %: 47.1097  AVERAGE MISS PENALTY: 0
LLC6 PREFETCH  REQUESTED:     0  ISSUED:     0  USEFUL:   621  USELESS: 2393279
 USEFUL LOAD PREFETCHES:        621 PREFETCH ISSUED TO LOWER LEVEL:    2415125  ACCURACY: 0.025713
 TIMELY PREFETCHES:        621 LATE PREFETCHES: 0 DROPPED PREFETCHES: 0
LLC6 AVERAGE MISS LATENCY: 356.957 cycles
LLC7 TOTAL     ACCESS: 342974  HIT: 34548  MISS: 308426  HIT %: 10.0731  MISS %: 89.9269  AVERAGE MISS PENALTY: 356.58
LLC7 LOAD      ACCESS:  5870  HIT:   590  MISS:  5280  HIT %: 10.0511  MISS %: 89.9489  AVERAGE MISS PENALTY: 324.074
LLC7 RFO       ACCESS:  2603  HIT:   119  MISS:  2484  HIT %: 4.57165  MISS %: 95.4284  AVERAGE MISS PENALTY: 328.031
LLC7 PREFETCH  ACCESS: 331333  HIT: 32116  MISS: 299217  HIT %: 9.69297  MISS %: 90.307  AVERAGE MISS PENALTY: 359.113
LLC7 WRITEBACK ACCESS:  3168  HIT:  1723  MISS:  1445  HIT %: 54.3876  MISS %: 45.6124  AVERAGE MISS PENALTY: 0
LLC7 PREFETCH  REQUESTED:     0  ISSUED:     0  USEFUL:   414  USELESS: 2398398
 USEFUL LOAD PREFETCHES:        414 PREFETCH ISSUED TO LOWER LEVEL:    2420866  ACCURACY: 0.0171013
 TIMELY PREFETCHES:        414 LATE PREFETCHES: 0 DROPPED PREFETCHES: 0
LLC7 AVERAGE MISS LATENCY: 356.58 cycles
ROI Average ROB Stall Cycles:	8.33183
ROI Total ROB Stalls Cycles:	137946814
ROI TOTAL ROB counter      :	16556609
ROI Average Load ROB Stall Cycles:	12.7779
ROI Total Load ROB Stalls Cycle  :	43394813
ROI Total Load ROB stalls Counter:	3396082
Major fault: 0 Minor fault: 102090

CPU 7 cumulative IPC: 1.08339 instructions: 200000001 cycles: 184606293
ITLB TOTAL     ACCESS: 37303303  HIT: 37303303  MISS:     0  HIT %:   100  MISS %:     0  AVERAGE MISS PENALTY: 0
ITLB LOAD      ACCESS: 37303303  HIT: 37303303  MISS:     0  HIT %:   100  MISS %:     0  AVERAGE MISS PENALTY: 0
ITLB RFO       ACCESS:     0  HIT:     0  MISS:     0  HIT %:     0  MISS %:     0  AVERAGE MISS PENALTY: 0
ITLB PREFETCH  ACCESS:     0  HIT:     0  MISS:     0  HIT %:     0  MISS %:     0  AVERAGE MISS PENALTY: 0
ITLB WRITEBACK ACCESS:     0  HIT:     0  MISS:     0  HIT %:     0  MISS %:     0  AVERAGE MISS PENALTY: 0
ITLB PREFETCH  REQUESTED:     0  ISSUED:     0  USEFUL:     0  USELESS:     0
 USEFUL LOAD PREFETCHES:          0 PREFETCH ISSUED TO LOWER LEVEL:          0  ACCURACY: -nan
 TIMELY PREFETCHES:          0 LATE PREFETCHES: 0 DROPPED PREFETCHES: 0
ITLB AVERAGE MISS LATENCY: -nan cycles
DTLB TOTAL     ACCESS: 58790592  HIT: 58707925  MISS: 82667  HIT %: 99.8594  MISS %: 0.140613  AVERAGE MISS PENALTY: 187.975
DTLB LOAD      ACCESS: 52118585  HIT: 52036312  MISS: 82273  HIT %: 99.8421  MISS %: 0.157857  AVERAGE MISS PENALTY: 188.435
DTLB RFO       ACCESS: 6672007  HIT: 6671613  MISS:   394  HIT %: 99.9941  MISS %: 0.00590527  AVERAGE MISS PENALTY: 91.9924
DTLB PREFETCH  ACCESS:     0  HIT:     0  MISS:     0  HIT %:     0  MISS %:     0  AVERAGE MISS PENALTY: 0
DTLB WRITEBACK ACCESS:     0  HIT:     0  MISS:     0  HIT %:     0  MISS %:     0  AVERAGE MISS PENALTY: 0
DTLB PREFETCH  REQUESTED:     0  ISSUED:     0  USEFUL:     0  USELESS:     0
 USEFUL LOAD PREFETCHES:          0 PREFETCH ISSUED TO LOWER LEVEL:          0  ACCURACY: -nan
 TIMELY PREFETCHES:          0 LATE PREFETCHES: 0 DROPPED PREFETCHES: 0
DTLB AVERAGE MISS LATENCY: 187.975 cycles
STLB TOTAL     ACCESS: 82667  HIT: 16933  MISS: 65734  HIT %: 20.4834  MISS %: 79.5166  AVERAGE MISS PENALTY: 100
STLB LOAD      ACCESS: 82273  HIT: 16864  MISS: 65409  HIT %: 20.4976  MISS %: 79.5024  AVERAGE MISS PENALTY: 100
STLB RFO       ACCESS:   394  HIT:    69  MISS:   325  HIT %: 17.5127  MISS %: 82.4873  AVERAGE MISS PENALTY: 100
STLB PREFETCH  ACCESS:     0  HIT:     0  MISS:     0  HIT %:     0  MISS %:     0  AVERAGE MISS PENALTY: 0
STLB WRITEBACK ACCESS:     0  HIT:     0  MISS:     0  HIT %:     0  MISS %:     0  AVERAGE MISS PENALTY: 0
STLB PREFETCH  REQUESTED:     0  ISSUED:     0  USEFUL:     0  USELESS:     0
 USEFUL LOAD PREFETCHES:          0 PREFETCH ISSUED TO LOWER LEVEL:          0  ACCURACY: -nan
 TIMELY PREFETCHES:          0 LATE PREFETCHES: 0 DROPPED PREFETCHES: 0
STLB AVERAGE MISS LATENCY: 100 cycles
L1D TOTAL     ACCESS: 65392854  HIT: 62701223  MISS: 2691631  HIT %: 95.8839  MISS %: 4.11609  AVERAGE MISS PENALTY: 2.30587e+06
L1D LOAD      ACCESS: 51092333  HIT: 50957633  MISS: 134700  HIT %: 99.7364  MISS %: 0.26364  AVERAGE MISS PENALTY: 4.60756e+07
L1D RFO       ACCESS: 6702426  HIT: 6682084  MISS: 20342  HIT %: 99.6965  MISS %: 0.303502  AVERAGE MISS PENALTY: 338.123
L1D PREFETCH  ACCESS: 7598095  HIT: 5061506  MISS: 2536589  HIT %: 66.6155  MISS %: 33.3845  AVERAGE MISS PENALTY: 67.3159
L1D WRITEBACK ACCESS:     0  HIT:     0  MISS:     0  HIT %:     0  MISS %:     0  AVERAGE MISS PENALTY: 0
L1D PREFETCH  REQUESTED: 8281906  ISSUED: 7903702  USEFUL: 2456523  USELESS: 80063
 USEFUL LOAD PREFETCHES:    2456523 PREFETCH ISSUED TO LOWER LEVEL:    4331009  ACCURACY: 56.7194
 TIMELY PREFETCHES:    2456523 LATE PREFETCHES: 42649 DROPPED PREFETCHES: 378204
L1D AVERAGE MISS LATENCY: 82.2808 cycles
L1I TOTAL     ACCESS: 48020123  HIT: 48020123  MISS:     0  HIT %:   100  MISS %:     0  AVERAGE MISS PENALTY: 0
L1I LOAD      ACCESS: 48020123  HIT: 48020123  MISS:     0  HIT %:   100  MISS %:     0  AVERAGE MISS PENALTY: 0
L1I RFO       ACCESS:     0  HIT:     0  MISS:     0  HIT %:     0  MISS %:     0  AVERAGE MISS PENALTY: 0
L1I PREFETCH  ACCESS:     0  HIT:     0  MISS:     0  HIT %:     0  MISS %:     0  AVERAGE MISS PENALTY: 0
L1I WRITEBACK ACCESS:     0  HIT:     0  MISS:     0  HIT %:     0  MISS %:     0  AVERAGE MISS PENALTY: 0
L1I PREFETCH  REQUESTED:     0  ISSUED:     0  USEFUL:     0  USELESS:     0
 USEFUL LOAD PREFETCHES:          0 PREFETCH ISSUED TO LOWER LEVEL:          0  ACCURACY: -nan
 TIMELY PREFETCHES:          0 LATE PREFETCHES: 0 DROPPED PREFETCHES: 0
L1I AVERAGE MISS LATENCY: -nan cycles
L2C TOTAL     ACCESS: 6343792  HIT: 3615349  MISS: 2728443  HIT %: 56.9903  MISS %: 43.0097  AVERAGE MISS PENALTY: 2.1258e+06
L2C LOAD      ACCESS: 131833  HIT: 11937  MISS: 119896  HIT %: 9.05464  MISS %: 90.9454  AVERAGE MISS PENALTY: 4.83688e+07
L2C RFO       ACCESS: 20342  HIT:   603  MISS: 19739  HIT %: 2.96431  MISS %: 97.0357  AVERAGE MISS PENALTY: 331.283
L2C PREFETCH  ACCESS: 6142398  HIT: 3567822  MISS: 2574576  HIT %: 58.0852  MISS %: 41.9148  AVERAGE MISS PENALTY: 346.036
L2C WRITEBACK ACCESS: 49219  HIT: 34987  MISS: 14232  HIT %: 71.0843  MISS %: 28.9157  AVERAGE MISS PENALTY: 0
L2C PREFETCH  REQUESTED: 4782531  ISSUED: 4782133  USEFUL:  6386  USELESS: 2568080
 USEFUL LOAD PREFETCHES:       6386 PREFETCH ISSUED TO LOWER LEVEL:    3362223  ACCURACY: 0.189934
 TIMELY PREFETCHES:       6386 LATE PREFETCHES: 40327 DROPPED PREFETCHES: 398
L2C AVERAGE MISS LATENCY: 343.552 cycles
LLC0 TOTAL     ACCESS: 340064  HIT: 30434  MISS: 309630  HIT %: 8.94949  MISS %: 91.0505  AVERAGE MISS PENALTY: 342.493
LLC0 LOAD      ACCESS: 44921  HIT:  4898  MISS: 40023  HIT %: 10.9036  MISS %: 89.0964  AVERAGE MISS PENALTY: 340.085
LLC0 RFO       ACCESS:  2463  HIT:     0  MISS:  2463  HIT %:     0  MISS %:   100  AVERAGE MISS PENALTY: 287.939
LLC0 PREFETCH  ACCESS: 289864  HIT: 24159  MISS: 265705  HIT %: 8.3346  MISS %: 91.6654  AVERAGE MISS PENALTY: 345.217
LLC0 WRITEBACK ACCESS:  2816  HIT:  1377  MISS:  1439  HIT %: 48.8991  MISS %: 51.1009  AVERAGE MISS PENALTY: 0
LLC0 PREFETCH  REQUESTED:     0  ISSUED:     0  USEFUL:   317  USELESS: 2130023
 USEFUL LOAD PREFETCHES:        317 PREFETCH ISSUED TO LOWER LEVEL:    2136383  ACCURACY: 0.0148382
 TIMELY PREFETCHES:        317 LATE PREFETCHES: 0 DROPPED PREFETCHES: 0
LLC0 AVERAGE MISS LATENCY: 342.493 cycles
Deadblocks : 288106 Deadblock percentage : 719.851

LLC1 TOTAL     ACCESS: 341124  HIT: 33656  MISS: 307468  HIT %: 9.86621  MISS %: 90.1338  AVERAGE MISS PENALTY: 336.298
LLC1 LOAD      ACCESS:  6149  HIT:   740  MISS:  5409  HIT %: 12.0345  MISS %: 87.9655  AVERAGE MISS PENALTY: 384.3
LLC1 RFO       ACCESS:  2456  HIT:     0  MISS:  2456  HIT %:     0  MISS %:   100  AVERAGE MISS PENALTY: 293.322
LLC1 PREFETCH  ACCESS: 329473  HIT: 31242  MISS: 298231  HIT %: 9.48242  MISS %: 90.5176  AVERAGE MISS PENALTY: 337.328
LLC1 WRITEBACK ACCESS:  3046  HIT:  1674  MISS:  1372  HIT %: 54.9573  MISS %: 45.0427  AVERAGE MISS PENALTY: 0
LLC1 PREFETCH  REQUESTED:     0  ISSUED:     0  USEFUL:   542  USELESS: 2389774
 USEFUL LOAD PREFETCHES:        542 PREFETCH ISSUED TO LOWER LEVEL:    2398827  ACCURACY: 0.0225944
 TIMELY PREFETCHES:        542 LATE PREFETCHES: 0 DROPPED PREFETCHES: 0
LLC1 AVERAGE MISS LATENCY: 336.298 cycles
LLC2 TOTAL     ACCESS: 341970  HIT: 35019  MISS: 306951  HIT %: 10.2404  MISS %: 89.7596  AVERAGE MISS PENALTY: 379.74
LLC2 LOAD      ACCESS:  5996  HIT:   726  MISS:  5270  HIT %: 12.1081  MISS %: 87.8919  AVERAGE MISS PENALTY: 362.844
LLC2 RFO       ACCESS:  2451  HIT:     1  MISS:  2450  HIT %: 0.0407997  MISS %: 99.9592  AVERAGE MISS PENALTY: 295.993
LLC2 PREFETCH  ACCESS: 330758  HIT: 32753  MISS: 298005  HIT %: 9.90241  MISS %: 90.0976  AVERAGE MISS PENALTY: 382.29
LLC2 WRITEBACK ACCESS:  2765  HIT:  1539  MISS:  1226  HIT %: 55.66  MISS %: 44.34  AVERAGE MISS PENALTY: 0
LLC2 PREFETCH  REQUESTED:     0  ISSUED:     0  USEFUL:   547  USELESS: 2387556
 USEFUL LOAD PREFETCHES:        547 PREFETCH ISSUED TO LOWER LEVEL:    2400267  ACCURACY: 0.0227891
 TIMELY PREFETCHES:        547 LATE PREFETCHES: 0 DROPPED PREFETCHES: 0
LLC2 AVERAGE MISS LATENCY: 379.74 cycles
LLC3 TOTAL     ACCESS: 342625  HIT: 35825  MISS: 306800  HIT %: 10.456  MISS %: 89.544  AVERAGE MISS PENALTY: 378.25
LLC3 LOAD      ACCESS:  6082  HIT:   807  MISS:  5275  HIT %: 13.2687  MISS %: 86.7313  AVERAGE MISS PENALTY: 371.735
LLC3 RFO       ACCESS:  2445  HIT:     0  MISS:  2445  HIT %:     0  MISS %:   100  AVERAGE MISS PENALTY: 300.352
LLC3 PREFETCH  ACCESS: 331149  HIT: 33312  MISS: 297837  HIT %: 10.0595  MISS %: 89.9405  AVERAGE MISS PENALTY: 380.583
LLC3 WRITEBACK ACCESS:  2949  HIT:  1706  MISS:  1243  HIT %: 57.8501  MISS %: 42.1499  AVERAGE MISS PENALTY: 0
LLC3 PREFETCH  REQUESTED:     0  ISSUED:     0  USEFUL:   562  USELESS: 2387548
 USEFUL LOAD PREFETCHES:        562 PREFETCH ISSUED TO LOWER LEVEL:    2405401  ACCURACY: 0.0233641
 TIMELY PREFETCHES:        562 LATE PREFETCHES: 0 DROPPED PREFETCHES: 0
LLC3 AVERAGE MISS LATENCY: 378.25 cycles
LLC4 TOTAL     ACCESS: 342883  HIT: 35617  MISS: 307266  HIT %: 10.3875  MISS %: 89.6125  AVERAGE MISS PENALTY: 335.393
LLC4 LOAD      ACCESS:  5847  HIT:   615  MISS:  5232  HIT %: 10.5182  MISS %: 89.4818  AVERAGE MISS PENALTY: 383.945
LLC4 RFO       ACCESS:  2441  HIT:     0  MISS:  2441  HIT %:     0  MISS %:   100  AVERAGE MISS PENALTY: 289.712
LLC4 PREFETCH  ACCESS: 331844  HIT: 33499  MISS: 298345  HIT %: 10.0948  MISS %: 89.9052  AVERAGE MISS PENALTY: 336.318
LLC4 WRITEBACK ACCESS:  2751  HIT:  1503  MISS:  1248  HIT %: 54.6347  MISS %: 45.3653  AVERAGE MISS PENALTY: 0
LLC4 PREFETCH  REQUESTED:     0  ISSUED:     0  USEFUL:   521  USELESS: 2391517
 USEFUL LOAD PREFETCHES:        521 PREFETCH ISSUED TO LOWER LEVEL:    2409861  ACCURACY: 0.0216195
 TIMELY PREFETCHES:        521 LATE PREFETCHES: 0 DROPPED PREFETCHES: 0
LLC4 AVERAGE MISS LATENCY: 335.393 cycles
LLC5 TOTAL     ACCESS: 343034  HIT: 35932  MISS: 307102  HIT %: 10.4748  MISS %: 89.5252  AVERAGE MISS PENALTY: 331.896
LLC5 LOAD      ACCESS:  6013  HIT:   750  MISS:  5263  HIT %: 12.473  MISS %: 87.527  AVERAGE MISS PENALTY: 394.11
LLC5 RFO       ACCESS:  2440  HIT:     0  MISS:  2440  HIT %:     0  MISS %:   100  AVERAGE MISS PENALTY: 292.364
LLC5 PREFETCH  ACCESS: 331661  HIT: 33530  MISS: 298131  HIT %: 10.1097  MISS %: 89.8903  AVERAGE MISS PENALTY: 332.533
LLC5 WRITEBACK ACCESS:  2920  HIT:  1652  MISS:  1268  HIT %: 56.5753  MISS %: 43.4247  AVERAGE MISS PENALTY: 0
LLC5 PREFETCH  REQUESTED:     0  ISSUED:     0  USEFUL:   594  USELESS: 2390108
 USEFUL LOAD PREFETCHES:        594 PREFETCH ISSUED TO LOWER LEVEL:    2408590  ACCURACY: 0.0246617
 TIMELY PREFETCHES:        594 LATE PREFETCHES: 0 DROPPED PREFETCHES: 0
LLC5 AVERAGE MISS LATENCY: 331.896 cycles
LLC6 TOTAL     ACCESS: 342755  HIT: 35111  MISS: 307644  HIT %: 10.2438  MISS %: 89.7562  AVERAGE MISS PENALTY: 366.779
LLC6 LOAD      ACCESS:  5910  HIT:   643  MISS:  5267  HIT %: 10.8799  MISS %: 89.1201  AVERAGE MISS PENALTY: 367.205
LLC6 RFO       ACCESS:  2443  HIT:     0  MISS:  2443  HIT %:     0  MISS %:   100  AVERAGE MISS PENALTY: 298.664
LLC6 PREFETCH  ACCESS: 331536  HIT: 32930  MISS: 298606  HIT %: 9.93256  MISS %: 90.0674  AVERAGE MISS PENALTY: 368.96
LLC6 WRITEBACK ACCESS:  2866  HIT:  1538  MISS:  1328  HIT %: 53.6636  MISS %: 46.3364  AVERAGE MISS PENALTY: 0
LLC6 PREFETCH  REQUESTED:     0  ISSUED:     0  USEFUL:   621  USELESS: 2393279
 USEFUL LOAD PREFETCHES:        621 PREFETCH ISSUED TO LOWER LEVEL:    2415125  ACCURACY: 0.025713
 TIMELY PREFETCHES:        621 LATE PREFETCHES: 0 DROPPED PREFETCHES: 0
LLC6 AVERAGE MISS LATENCY: 366.779 cycles
LLC7 TOTAL     ACCESS: 343006  HIT: 34435  MISS: 308571  HIT %: 10.0392  MISS %: 89.9608  AVERAGE MISS PENALTY: 365.521
LLC7 LOAD      ACCESS:  5859  HIT:   567  MISS:  5292  HIT %: 9.67742  MISS %: 90.3226  AVERAGE MISS PENALTY: 363.569
LLC7 RFO       ACCESS:  2600  HIT:   117  MISS:  2483  HIT %:   4.5  MISS %:  95.5  AVERAGE MISS PENALTY: 298.904
LLC7 PREFETCH  ACCESS: 331410  HIT: 32013  MISS: 299397  HIT %: 9.65964  MISS %: 90.3404  AVERAGE MISS PENALTY: 367.815
LLC7 WRITEBACK ACCESS:  3137  HIT:  1738  MISS:  1399  HIT %: 55.4033  MISS %: 44.5967  AVERAGE MISS PENALTY: 0
LLC7 PREFETCH  REQUESTED:     0  ISSUED:     0  USEFUL:   414  USELESS: 2398398
 USEFUL LOAD PREFETCHES:        414 PREFETCH ISSUED TO LOWER LEVEL:    2420866  ACCURACY: 0.0171013
 TIMELY PREFETCHES:        414 LATE PREFETCHES: 0 DROPPED PREFETCHES: 0
LLC7 AVERAGE MISS LATENCY: 365.521 cycles
ROI Average ROB Stall Cycles:	8.35895
ROI Total ROB Stalls Cycles:	138402419
ROI TOTAL ROB counter      :	16557399
ROI Average Load ROB Stall Cycles:	12.9044
ROI Total Load ROB Stalls Cycle  :	43828807
ROI Total Load ROB stalls Counter:	3396436
Major fault: 0 Minor fault: 101936








Interconnect Stats 
LINK 0 BW : 0LINK 1 BW : 0LINK 2 BW : 0LINK 3 BW : 0LINK 4 BW : 0LINK 5 BW : 0LINK 6 BW : 0LINK 7 BW : 0
DRAM Statistics
 CHANNEL 0
 RQ ROW_BUFFER_HIT: 8108527  ROW_BUFFER_MISS: 1721716
 DBUS_CONGESTED: 3248450
 WQ ROW_BUFFER_HIT:  8540  ROW_BUFFER_MISS: 77232  FULL:     0

 CHANNEL 1
 RQ ROW_BUFFER_HIT: 8097498  ROW_BUFFER_MISS: 1719555
 DBUS_CONGESTED: 3248450
 WQ ROW_BUFFER_HIT:  9064  ROW_BUFFER_MISS: 78936  FULL:     0

 AVG_CONGESTED_CYCLE: 4
DRAM PAGES: 2097152
Allocated PAGES: 816224
L2C destructor called
L1D destructor called
L1I destructor called
STLB destructor called
DTLB destructor called
ITLB destructor called
L2C destructor called
L1D destructor called
L1I destructor called
STLB destructor called
DTLB destructor called
ITLB destructor called
L2C destructor called
L1D destructor called
L1I destructor called
STLB destructor called
DTLB destructor called
ITLB destructor called
L2C destructor called
L1D destructor called
L1I destructor called
STLB destructor called
DTLB destructor called
ITLB destructor called
L2C destructor called
L1D destructor called
L1I destructor called
STLB destructor called
DTLB destructor called
ITLB destructor called
L2C destructor called
L1D destructor called
L1I destructor called
STLB destructor called
DTLB destructor called
ITLB destructor called
L2C destructor called
L1D destructor called
L1I destructor called
STLB destructor called
DTLB destructor called
ITLB destructor called
L2C destructor called
L1D destructor called
L1I destructor called
STLB destructor called
DTLB destructor called
ITLB destructor called
