
*** ChampSim Multicore Out-of-Order Simulator ***

Warmup Instructions: 200000000
Simulation Instructions: 200000000
Number of CPUs: 8
threads:1

L1I Configuration:
L1I_SET:64
L1I_WAY:8
L1I_RQ_SIZE:64
L1I_WQ_SIZE:64
L1I_PQ_SIZE:8
L1I_MSHR_SIZE:8

L1D Configuration:
L1D_SET:64
L1D_WAY:12
L1D_RQ_SIZE:64
L1D_WQ_SIZE:64
L1D_PQ_SIZE:8
L1D_MSHR_SIZE:16

L2C Configuration:
L2C_SET:1024
L2C_WAY:8
L2C_RQ_SIZE:32
L2C_WQ_SIZE:32
L2C_PQ_SIZE:16
L2C_MSHR_SIZE:32

LLC Configuration:
LLC_SET:2048
LLC_WAY:16
LLC SLICES:8
LLC_RQ_SIZE:64
LLC_WQ_SIZE:64
LLC_PQ_SIZE:32
LLC_MSHR_SIZE:64

Interconnect OFF
Attacker deprioritize is: OFF
Off-chip DRAM Size: 8192 MB Channels: 2 Width: 64-bit Data Rate: 3200 MT/s
PAGE SIZE in KB: 4.000000 
PAGE SIZE in MB: 0.003906 
PAGE offset in bits: 12 
CEASER-S_LLC:0
MIRAGE : 0
CEASER_LATENCY:3
REMAP : OFF
Partitions : 1
Multi-Step : OFF
BFS : OFF

CPU 0 runs /home/anubhav/spec_2017/654.roms_s-1007B.champsimtrace.xz
CPU 1 runs /home/anubhav/spec_2017/654.roms_s-1007B.champsimtrace.xz
CPU 2 runs /home/anubhav/spec_2017/654.roms_s-1007B.champsimtrace.xz
CPU 3 runs /home/anubhav/spec_2017/654.roms_s-1007B.champsimtrace.xz
CPU 4 runs /home/anubhav/spec_2017/654.roms_s-1007B.champsimtrace.xz
CPU 5 runs /home/anubhav/spec_2017/654.roms_s-1007B.champsimtrace.xz
CPU 6 runs /home/anubhav/spec_2017/654.roms_s-1007B.champsimtrace.xz
CPU 7 runs /home/anubhav/spec_2017/654.roms_s-1007B.champsimtrace.xz
CPU 0 Bimodal branch predictor
Initialize Hawkeye state
Initialize Hawkeye state
Initialize Hawkeye state
Initialize Hawkeye state
Initialize Hawkeye state
Initialize Hawkeye state
Initialize Hawkeye state
Initialize Hawkeye state
CPU 1 Bimodal branch predictor
Initialize Hawkeye state
Initialize Hawkeye state
Initialize Hawkeye state
Initialize Hawkeye state
Initialize Hawkeye state
Initialize Hawkeye state
Initialize Hawkeye state
Initialize Hawkeye state
CPU 2 Bimodal branch predictor
Initialize Hawkeye state
Initialize Hawkeye state
Initialize Hawkeye state
Initialize Hawkeye state
Initialize Hawkeye state
Initialize Hawkeye state
Initialize Hawkeye state
Initialize Hawkeye state
CPU 3 Bimodal branch predictor
Initialize Hawkeye state
Initialize Hawkeye state
Initialize Hawkeye state
Initialize Hawkeye state
Initialize Hawkeye state
Initialize Hawkeye state
Initialize Hawkeye state
Initialize Hawkeye state
CPU 4 Bimodal branch predictor
Initialize Hawkeye state
Initialize Hawkeye state
Initialize Hawkeye state
Initialize Hawkeye state
Initialize Hawkeye state
Initialize Hawkeye state
Initialize Hawkeye state
Initialize Hawkeye state
CPU 5 Bimodal branch predictor
Initialize Hawkeye state
Initialize Hawkeye state
Initialize Hawkeye state
Initialize Hawkeye state
Initialize Hawkeye state
Initialize Hawkeye state
Initialize Hawkeye state
Initialize Hawkeye state
CPU 6 Bimodal branch predictor
Initialize Hawkeye state
Initialize Hawkeye state
Initialize Hawkeye state
Initialize Hawkeye state
Initialize Hawkeye state
Initialize Hawkeye state
Initialize Hawkeye state
Initialize Hawkeye state
CPU 7 Bimodal branch predictor
Initialize Hawkeye state
Initialize Hawkeye state
Initialize Hawkeye state
Initialize Hawkeye state
Initialize Hawkeye state
Initialize Hawkeye state
Initialize Hawkeye state
Initialize Hawkeye state
Heartbeat CPU 0 instructions: 10000000 cycles: 4500973 heartbeat IPC: 2.22174 cumulative IPC: 2.22174 (Simulation time: 1 hr 43 min 3 sec) 
 Total Blocks : 262144 Invalid Blocks : 181653
Heartbeat CPU 1 instructions: 10000000 cycles: 4500975 heartbeat IPC: 2.22174 cumulative IPC: 2.22174 (Simulation time: 1 hr 43 min 24 sec) 
 Total Blocks : 262144 Invalid Blocks : 181653
Heartbeat CPU 2 instructions: 10000000 cycles: 4500977 heartbeat IPC: 2.22174 cumulative IPC: 2.22174 (Simulation time: 1 hr 43 min 25 sec) 
 Total Blocks : 262144 Invalid Blocks : 181653
Heartbeat CPU 3 instructions: 10000000 cycles: 4500979 heartbeat IPC: 2.22174 cumulative IPC: 2.22174 (Simulation time: 1 hr 43 min 25 sec) 
 Total Blocks : 262144 Invalid Blocks : 181653
Heartbeat CPU 4 instructions: 10000000 cycles: 4500982 heartbeat IPC: 2.22174 cumulative IPC: 2.22174 (Simulation time: 1 hr 43 min 25 sec) 
 Total Blocks : 262144 Invalid Blocks : 181653
Heartbeat CPU 5 instructions: 10000000 cycles: 4500984 heartbeat IPC: 2.22174 cumulative IPC: 2.22174 (Simulation time: 1 hr 43 min 25 sec) 
 Total Blocks : 262144 Invalid Blocks : 181653
Heartbeat CPU 6 instructions: 10000000 cycles: 4500986 heartbeat IPC: 2.22174 cumulative IPC: 2.22174 (Simulation time: 1 hr 43 min 25 sec) 
 Total Blocks : 262144 Invalid Blocks : 181653
Heartbeat CPU 7 instructions: 10000000 cycles: 4500988 heartbeat IPC: 2.22173 cumulative IPC: 2.22173 (Simulation time: 1 hr 43 min 25 sec) 
 Total Blocks : 262144 Invalid Blocks : 181653
Heartbeat CPU 0 instructions: 20000000 cycles: 9001339 heartbeat IPC: 2.22204 cumulative IPC: 2.22189 (Simulation time: 3 hr 26 min 6 sec) 
 Total Blocks : 262144 Invalid Blocks : 122313
Heartbeat CPU 1 instructions: 20000000 cycles: 9001341 heartbeat IPC: 2.22204 cumulative IPC: 2.22189 (Simulation time: 3 hr 26 min 14 sec) 
 Total Blocks : 262144 Invalid Blocks : 122313
Heartbeat CPU 2 instructions: 20000000 cycles: 9001343 heartbeat IPC: 2.22204 cumulative IPC: 2.22189 (Simulation time: 3 hr 26 min 14 sec) 
 Total Blocks : 262144 Invalid Blocks : 122313
Heartbeat CPU 3 instructions: 20000000 cycles: 9001345 heartbeat IPC: 2.22204 cumulative IPC: 2.22189 (Simulation time: 3 hr 26 min 14 sec) 
 Total Blocks : 262144 Invalid Blocks : 122313
Heartbeat CPU 4 instructions: 20000000 cycles: 9001348 heartbeat IPC: 2.22204 cumulative IPC: 2.22189 (Simulation time: 3 hr 26 min 14 sec) 
 Total Blocks : 262144 Invalid Blocks : 122313
Heartbeat CPU 5 instructions: 20000000 cycles: 9001350 heartbeat IPC: 2.22204 cumulative IPC: 2.22189 (Simulation time: 3 hr 26 min 14 sec) 
 Total Blocks : 262144 Invalid Blocks : 122313
Heartbeat CPU 6 instructions: 20000000 cycles: 9001352 heartbeat IPC: 2.22204 cumulative IPC: 2.22189 (Simulation time: 3 hr 26 min 14 sec) 
 Total Blocks : 262144 Invalid Blocks : 122313
Heartbeat CPU 7 instructions: 20000000 cycles: 9001354 heartbeat IPC: 2.22204 cumulative IPC: 2.22189 (Simulation time: 3 hr 26 min 14 sec) 
 Total Blocks : 262144 Invalid Blocks : 122313
Heartbeat CPU 0 instructions: 30000000 cycles: 13501834 heartbeat IPC: 2.22198 cumulative IPC: 2.22192 (Simulation time: 5 hr 1 min 53 sec) 
 Total Blocks : 262144 Invalid Blocks : 84320
Heartbeat CPU 1 instructions: 30000000 cycles: 13501836 heartbeat IPC: 2.22198 cumulative IPC: 2.22192 (Simulation time: 5 hr 2 min 1 sec) 
 Total Blocks : 262144 Invalid Blocks : 84320
Heartbeat CPU 2 instructions: 30000000 cycles: 13501838 heartbeat IPC: 2.22198 cumulative IPC: 2.22192 (Simulation time: 5 hr 2 min 1 sec) 
 Total Blocks : 262144 Invalid Blocks : 84320
Heartbeat CPU 3 instructions: 30000000 cycles: 13501840 heartbeat IPC: 2.22198 cumulative IPC: 2.22192 (Simulation time: 5 hr 2 min 1 sec) 
 Total Blocks : 262144 Invalid Blocks : 84320
Heartbeat CPU 4 instructions: 30000000 cycles: 13501843 heartbeat IPC: 2.22198 cumulative IPC: 2.22192 (Simulation time: 5 hr 2 min 2 sec) 
 Total Blocks : 262144 Invalid Blocks : 84320
Heartbeat CPU 5 instructions: 30000000 cycles: 13501845 heartbeat IPC: 2.22198 cumulative IPC: 2.22192 (Simulation time: 5 hr 2 min 2 sec) 
 Total Blocks : 262144 Invalid Blocks : 84320
Heartbeat CPU 6 instructions: 30000000 cycles: 13501847 heartbeat IPC: 2.22198 cumulative IPC: 2.22192 (Simulation time: 5 hr 2 min 2 sec) 
 Total Blocks : 262144 Invalid Blocks : 84320
Heartbeat CPU 7 instructions: 30000000 cycles: 13501849 heartbeat IPC: 2.22198 cumulative IPC: 2.22192 (Simulation time: 5 hr 2 min 2 sec) 
 Total Blocks : 262144 Invalid Blocks : 84320
Heartbeat CPU 0 instructions: 40000003 cycles: 18002415 heartbeat IPC: 2.22194 cumulative IPC: 2.22192 (Simulation time: 6 hr 35 min 50 sec) 
 Total Blocks : 262144 Invalid Blocks : 61134
Heartbeat CPU 1 instructions: 40000003 cycles: 18002417 heartbeat IPC: 2.22194 cumulative IPC: 2.22192 (Simulation time: 6 hr 35 min 58 sec) 
 Total Blocks : 262144 Invalid Blocks : 61134
Heartbeat CPU 2 instructions: 40000003 cycles: 18002419 heartbeat IPC: 2.22194 cumulative IPC: 2.22192 (Simulation time: 6 hr 35 min 59 sec) 
 Total Blocks : 262144 Invalid Blocks : 61134
Heartbeat CPU 3 instructions: 40000003 cycles: 18002421 heartbeat IPC: 2.22194 cumulative IPC: 2.22192 (Simulation time: 6 hr 35 min 59 sec) 
 Total Blocks : 262144 Invalid Blocks : 61134
Heartbeat CPU 4 instructions: 40000003 cycles: 18002424 heartbeat IPC: 2.22194 cumulative IPC: 2.22192 (Simulation time: 6 hr 35 min 59 sec) 
 Total Blocks : 262144 Invalid Blocks : 61134
Heartbeat CPU 5 instructions: 40000003 cycles: 18002426 heartbeat IPC: 2.22194 cumulative IPC: 2.22192 (Simulation time: 6 hr 35 min 59 sec) 
 Total Blocks : 262144 Invalid Blocks : 61134
Heartbeat CPU 6 instructions: 40000003 cycles: 18002428 heartbeat IPC: 2.22194 cumulative IPC: 2.22192 (Simulation time: 6 hr 35 min 59 sec) 
 Total Blocks : 262144 Invalid Blocks : 61134
Heartbeat CPU 7 instructions: 40000003 cycles: 18002430 heartbeat IPC: 2.22194 cumulative IPC: 2.22192 (Simulation time: 6 hr 35 min 59 sec) 
 Total Blocks : 262144 Invalid Blocks : 61134
Heartbeat CPU 0 instructions: 50000001 cycles: 22484741 heartbeat IPC: 2.23098 cumulative IPC: 2.22373 (Simulation time: 10 hr 56 min 9 sec) 
 Total Blocks : 262144 Invalid Blocks : 2194
Heartbeat CPU 1 instructions: 50000001 cycles: 22484782 heartbeat IPC: 2.23096 cumulative IPC: 2.22373 (Simulation time: 10 hr 56 min 16 sec) 
 Total Blocks : 262144 Invalid Blocks : 2194
Heartbeat CPU 2 instructions: 50000001 cycles: 22484789 heartbeat IPC: 2.23096 cumulative IPC: 2.22373 (Simulation time: 10 hr 56 min 16 sec) 
 Total Blocks : 262144 Invalid Blocks : 2194
Heartbeat CPU 3 instructions: 50000001 cycles: 22484826 heartbeat IPC: 2.23094 cumulative IPC: 2.22372 (Simulation time: 10 hr 56 min 16 sec) 
 Total Blocks : 262144 Invalid Blocks : 2194
Heartbeat CPU 5 instructions: 50000001 cycles: 22484830 heartbeat IPC: 2.23095 cumulative IPC: 2.22372 (Simulation time: 10 hr 56 min 16 sec) 
 Total Blocks : 262144 Invalid Blocks : 2194
Heartbeat CPU 4 instructions: 50000001 cycles: 22484860 heartbeat IPC: 2.23093 cumulative IPC: 2.22372 (Simulation time: 10 hr 56 min 17 sec) 
 Total Blocks : 262144 Invalid Blocks : 2194
Heartbeat CPU 6 instructions: 50000001 cycles: 22484897 heartbeat IPC: 2.23091 cumulative IPC: 2.22371 (Simulation time: 10 hr 56 min 17 sec) 
 Total Blocks : 262144 Invalid Blocks : 2194
Heartbeat CPU 7 instructions: 50000001 cycles: 22484920 heartbeat IPC: 2.2309 cumulative IPC: 2.22371 (Simulation time: 10 hr 56 min 17 sec) 
 Total Blocks : 262144 Invalid Blocks : 2194
Heartbeat CPU 2 instructions: 60000001 cycles: 26845516 heartbeat IPC: 2.2932 cumulative IPC: 2.23501 (Simulation time: 14 hr 33 min 5 sec) 
 Total Blocks : 262144 Invalid Blocks : 162
Heartbeat CPU 0 instructions: 60000001 cycles: 26845524 heartbeat IPC: 2.29317 cumulative IPC: 2.23501 (Simulation time: 14 hr 33 min 11 sec) 
 Total Blocks : 262144 Invalid Blocks : 162
Heartbeat CPU 1 instructions: 60000001 cycles: 26845551 heartbeat IPC: 2.29317 cumulative IPC: 2.23501 (Simulation time: 14 hr 33 min 11 sec) 
 Total Blocks : 262144 Invalid Blocks : 162
Heartbeat CPU 3 instructions: 60000001 cycles: 26845639 heartbeat IPC: 2.29315 cumulative IPC: 2.235 (Simulation time: 14 hr 33 min 12 sec) 
 Total Blocks : 262144 Invalid Blocks : 162
Heartbeat CPU 5 instructions: 60000001 cycles: 26845653 heartbeat IPC: 2.29315 cumulative IPC: 2.235 (Simulation time: 14 hr 33 min 12 sec) 
 Total Blocks : 262144 Invalid Blocks : 162
Heartbeat CPU 4 instructions: 60000001 cycles: 26845661 heartbeat IPC: 2.29316 cumulative IPC: 2.235 (Simulation time: 14 hr 33 min 12 sec) 
 Total Blocks : 262144 Invalid Blocks : 162
Heartbeat CPU 7 instructions: 60000001 cycles: 26845670 heartbeat IPC: 2.29318 cumulative IPC: 2.235 (Simulation time: 14 hr 33 min 12 sec) 
 Total Blocks : 262144 Invalid Blocks : 162
Heartbeat CPU 6 instructions: 60000001 cycles: 26845686 heartbeat IPC: 2.29316 cumulative IPC: 2.235 (Simulation time: 14 hr 33 min 12 sec) 
 Total Blocks : 262144 Invalid Blocks : 162
Heartbeat CPU 2 instructions: 70000003 cycles: 31345793 heartbeat IPC: 2.22209 cumulative IPC: 2.23315 (Simulation time: 16 hr 2 min 39 sec) 
 Total Blocks : 262144 Invalid Blocks : 130
Heartbeat CPU 0 instructions: 70000003 cycles: 31345796 heartbeat IPC: 2.22209 cumulative IPC: 2.23315 (Simulation time: 16 hr 2 min 54 sec) 
 Total Blocks : 262144 Invalid Blocks : 130
Heartbeat CPU 1 instructions: 70000003 cycles: 31345822 heartbeat IPC: 2.22209 cumulative IPC: 2.23315 (Simulation time: 16 hr 2 min 54 sec) 
 Total Blocks : 262144 Invalid Blocks : 130
Heartbeat CPU 3 instructions: 70000003 cycles: 31345920 heartbeat IPC: 2.22208 cumulative IPC: 2.23315 (Simulation time: 16 hr 2 min 54 sec) 
 Total Blocks : 262144 Invalid Blocks : 130
Heartbeat CPU 5 instructions: 70000003 cycles: 31345927 heartbeat IPC: 2.22209 cumulative IPC: 2.23314 (Simulation time: 16 hr 2 min 54 sec) 
 Total Blocks : 262144 Invalid Blocks : 130
Heartbeat CPU 4 instructions: 70000003 cycles: 31345939 heartbeat IPC: 2.22209 cumulative IPC: 2.23314 (Simulation time: 16 hr 2 min 54 sec) 
 Total Blocks : 262144 Invalid Blocks : 130
Heartbeat CPU 7 instructions: 70000003 cycles: 31345949 heartbeat IPC: 2.22208 cumulative IPC: 2.23314 (Simulation time: 16 hr 2 min 54 sec) 
 Total Blocks : 262144 Invalid Blocks : 130
Heartbeat CPU 6 instructions: 70000003 cycles: 31345963 heartbeat IPC: 2.22209 cumulative IPC: 2.23314 (Simulation time: 16 hr 2 min 55 sec) 
 Total Blocks : 262144 Invalid Blocks : 130
Heartbeat CPU 2 instructions: 80000000 cycles: 35846383 heartbeat IPC: 2.22193 cumulative IPC: 2.23175 (Simulation time: 17 hr 19 min 33 sec) 
 Total Blocks : 262144 Invalid Blocks : 106
Heartbeat CPU 0 instructions: 80000000 cycles: 35846389 heartbeat IPC: 2.22193 cumulative IPC: 2.23175 (Simulation time: 17 hr 19 min 48 sec) 
 Total Blocks : 262144 Invalid Blocks : 106
Heartbeat CPU 1 instructions: 80000000 cycles: 35846409 heartbeat IPC: 2.22193 cumulative IPC: 2.23174 (Simulation time: 17 hr 19 min 49 sec) 
 Total Blocks : 262144 Invalid Blocks : 106
Heartbeat CPU 3 instructions: 80000000 cycles: 35846510 heartbeat IPC: 2.22193 cumulative IPC: 2.23174 (Simulation time: 17 hr 19 min 49 sec) 
 Total Blocks : 262144 Invalid Blocks : 106
Heartbeat CPU 5 instructions: 80000000 cycles: 35846518 heartbeat IPC: 2.22193 cumulative IPC: 2.23174 (Simulation time: 17 hr 19 min 49 sec) 
 Total Blocks : 262144 Invalid Blocks : 106
Heartbeat CPU 4 instructions: 80000000 cycles: 35846526 heartbeat IPC: 2.22193 cumulative IPC: 2.23174 (Simulation time: 17 hr 19 min 49 sec) 
 Total Blocks : 262144 Invalid Blocks : 106
Heartbeat CPU 7 instructions: 80000000 cycles: 35846541 heartbeat IPC: 2.22193 cumulative IPC: 2.23174 (Simulation time: 17 hr 19 min 49 sec) 
 Total Blocks : 262144 Invalid Blocks : 106
Heartbeat CPU 6 instructions: 80000000 cycles: 35846551 heartbeat IPC: 2.22193 cumulative IPC: 2.23173 (Simulation time: 17 hr 19 min 49 sec) 
 Total Blocks : 262144 Invalid Blocks : 106
Heartbeat CPU 2 instructions: 90000002 cycles: 40346883 heartbeat IPC: 2.22198 cumulative IPC: 2.23066 (Simulation time: 18 hr 30 min 45 sec) 
 Total Blocks : 262144 Invalid Blocks : 92
Heartbeat CPU 0 instructions: 90000002 cycles: 40346888 heartbeat IPC: 2.22198 cumulative IPC: 2.23066 (Simulation time: 18 hr 30 min 48 sec) 
 Total Blocks : 262144 Invalid Blocks : 92
Heartbeat CPU 1 instructions: 90000002 cycles: 40346907 heartbeat IPC: 2.22198 cumulative IPC: 2.23065 (Simulation time: 18 hr 30 min 48 sec) 
 Total Blocks : 262144 Invalid Blocks : 92
Heartbeat CPU 3 instructions: 90000002 cycles: 40347008 heartbeat IPC: 2.22198 cumulative IPC: 2.23065 (Simulation time: 18 hr 30 min 48 sec) 
 Total Blocks : 262144 Invalid Blocks : 92
Heartbeat CPU 5 instructions: 90000002 cycles: 40347017 heartbeat IPC: 2.22198 cumulative IPC: 2.23065 (Simulation time: 18 hr 30 min 48 sec) 
 Total Blocks : 262144 Invalid Blocks : 92
Heartbeat CPU 4 instructions: 90000002 cycles: 40347021 heartbeat IPC: 2.22198 cumulative IPC: 2.23065 (Simulation time: 18 hr 30 min 48 sec) 
 Total Blocks : 262144 Invalid Blocks : 92
Heartbeat CPU 7 instructions: 90000002 cycles: 40347040 heartbeat IPC: 2.22198 cumulative IPC: 2.23065 (Simulation time: 18 hr 30 min 48 sec) 
 Total Blocks : 262144 Invalid Blocks : 92
Heartbeat CPU 6 instructions: 90000002 cycles: 40347047 heartbeat IPC: 2.22198 cumulative IPC: 2.23065 (Simulation time: 18 hr 30 min 48 sec) 
 Total Blocks : 262144 Invalid Blocks : 92
Heartbeat CPU 2 instructions: 100000000 cycles: 44847186 heartbeat IPC: 2.22207 cumulative IPC: 2.22979 (Simulation time: 19 hr 37 min 56 sec) 
 Total Blocks : 262144 Invalid Blocks : 74
Heartbeat CPU 0 instructions: 100000000 cycles: 44847191 heartbeat IPC: 2.22207 cumulative IPC: 2.22979 (Simulation time: 19 hr 37 min 59 sec) 
 Total Blocks : 262144 Invalid Blocks : 74
Heartbeat CPU 1 instructions: 100000000 cycles: 44847214 heartbeat IPC: 2.22207 cumulative IPC: 2.22979 (Simulation time: 19 hr 37 min 59 sec) 
 Total Blocks : 262144 Invalid Blocks : 74
Heartbeat CPU 3 instructions: 100000000 cycles: 44847309 heartbeat IPC: 2.22207 cumulative IPC: 2.22979 (Simulation time: 19 hr 37 min 59 sec) 
 Total Blocks : 262144 Invalid Blocks : 74
Heartbeat CPU 5 instructions: 100000000 cycles: 44847322 heartbeat IPC: 2.22207 cumulative IPC: 2.22979 (Simulation time: 19 hr 37 min 59 sec) 
 Total Blocks : 262144 Invalid Blocks : 74
Heartbeat CPU 4 instructions: 100000000 cycles: 44847323 heartbeat IPC: 2.22207 cumulative IPC: 2.22979 (Simulation time: 19 hr 37 min 59 sec) 
 Total Blocks : 262144 Invalid Blocks : 74
Heartbeat CPU 7 instructions: 100000000 cycles: 44847347 heartbeat IPC: 2.22207 cumulative IPC: 2.22979 (Simulation time: 19 hr 37 min 59 sec) 
 Total Blocks : 262144 Invalid Blocks : 74
Heartbeat CPU 6 instructions: 100000000 cycles: 44847354 heartbeat IPC: 2.22207 cumulative IPC: 2.22979 (Simulation time: 19 hr 37 min 59 sec) 
 Total Blocks : 262144 Invalid Blocks : 74
Heartbeat CPU 2 instructions: 110000000 cycles: 49347747 heartbeat IPC: 2.22195 cumulative IPC: 2.22908 (Simulation time: 20 hr 46 min 23 sec) 
 Total Blocks : 262144 Invalid Blocks : 61
Heartbeat CPU 0 instructions: 110000000 cycles: 49347755 heartbeat IPC: 2.22194 cumulative IPC: 2.22908 (Simulation time: 20 hr 46 min 42 sec) 
 Total Blocks : 262144 Invalid Blocks : 61
Heartbeat CPU 1 instructions: 110000000 cycles: 49347776 heartbeat IPC: 2.22194 cumulative IPC: 2.22908 (Simulation time: 20 hr 46 min 43 sec) 
 Total Blocks : 262144 Invalid Blocks : 61
Heartbeat CPU 3 instructions: 110000000 cycles: 49347871 heartbeat IPC: 2.22194 cumulative IPC: 2.22907 (Simulation time: 20 hr 46 min 43 sec) 
 Total Blocks : 262144 Invalid Blocks : 61
Heartbeat CPU 4 instructions: 110000000 cycles: 49347878 heartbeat IPC: 2.22195 cumulative IPC: 2.22907 (Simulation time: 20 hr 46 min 43 sec) 
 Total Blocks : 262144 Invalid Blocks : 61
Heartbeat CPU 5 instructions: 110000000 cycles: 49347886 heartbeat IPC: 2.22194 cumulative IPC: 2.22907 (Simulation time: 20 hr 46 min 43 sec) 
 Total Blocks : 262144 Invalid Blocks : 61
Heartbeat CPU 6 instructions: 110000000 cycles: 49347911 heartbeat IPC: 2.22195 cumulative IPC: 2.22907 (Simulation time: 20 hr 46 min 43 sec) 
 Total Blocks : 262144 Invalid Blocks : 61
Heartbeat CPU 7 instructions: 110000000 cycles: 49347913 heartbeat IPC: 2.22194 cumulative IPC: 2.22907 (Simulation time: 20 hr 46 min 43 sec) 
 Total Blocks : 262144 Invalid Blocks : 61
Heartbeat CPU 2 instructions: 120000000 cycles: 53839446 heartbeat IPC: 2.22633 cumulative IPC: 2.22885 (Simulation time: 22 hr 34 min 46 sec) 
 Total Blocks : 262144 Invalid Blocks : 15
Heartbeat CPU 0 instructions: 120000000 cycles: 53839471 heartbeat IPC: 2.22632 cumulative IPC: 2.22885 (Simulation time: 22 hr 34 min 48 sec) 
 Total Blocks : 262144 Invalid Blocks : 15
Heartbeat CPU 1 instructions: 120000000 cycles: 53839479 heartbeat IPC: 2.22633 cumulative IPC: 2.22885 (Simulation time: 22 hr 34 min 49 sec) 
 Total Blocks : 262144 Invalid Blocks : 15
Heartbeat CPU 3 instructions: 120000000 cycles: 53839550 heartbeat IPC: 2.22634 cumulative IPC: 2.22884 (Simulation time: 22 hr 34 min 49 sec) 
 Total Blocks : 262144 Invalid Blocks : 15
Heartbeat CPU 4 instructions: 120000000 cycles: 53839595 heartbeat IPC: 2.22632 cumulative IPC: 2.22884 (Simulation time: 22 hr 34 min 49 sec) 
 Total Blocks : 262144 Invalid Blocks : 15
Heartbeat CPU 5 instructions: 120000000 cycles: 53839611 heartbeat IPC: 2.22632 cumulative IPC: 2.22884 (Simulation time: 22 hr 34 min 49 sec) 
 Total Blocks : 262144 Invalid Blocks : 15
Heartbeat CPU 7 instructions: 120000000 cycles: 53839641 heartbeat IPC: 2.22631 cumulative IPC: 2.22884 (Simulation time: 22 hr 34 min 49 sec) 
 Total Blocks : 262144 Invalid Blocks : 15
Heartbeat CPU 6 instructions: 120000000 cycles: 53839653 heartbeat IPC: 2.22631 cumulative IPC: 2.22884 (Simulation time: 22 hr 34 min 49 sec) 
 Total Blocks : 262144 Invalid Blocks : 15
Heartbeat CPU 2 instructions: 130000003 cycles: 58200937 heartbeat IPC: 2.29279 cumulative IPC: 2.23364 (Simulation time: 25 hr 57 min 1 sec) 
 Total Blocks : 262144 Invalid Blocks : 0
Heartbeat CPU 1 instructions: 130000003 cycles: 58200953 heartbeat IPC: 2.2928 cumulative IPC: 2.23364 (Simulation time: 25 hr 57 min 4 sec) 
 Total Blocks : 262144 Invalid Blocks : 0
Heartbeat CPU 0 instructions: 130000003 cycles: 58200956 heartbeat IPC: 2.2928 cumulative IPC: 2.23364 (Simulation time: 25 hr 57 min 4 sec) 
 Total Blocks : 262144 Invalid Blocks : 0
Heartbeat CPU 3 instructions: 130000003 cycles: 58201072 heartbeat IPC: 2.29278 cumulative IPC: 2.23364 (Simulation time: 25 hr 57 min 4 sec) 
 Total Blocks : 262144 Invalid Blocks : 0
Heartbeat CPU 5 instructions: 130000003 cycles: 58201163 heartbeat IPC: 2.29276 cumulative IPC: 2.23363 (Simulation time: 25 hr 57 min 4 sec) 
 Total Blocks : 262144 Invalid Blocks : 0
Heartbeat CPU 4 instructions: 130000003 cycles: 58201195 heartbeat IPC: 2.29274 cumulative IPC: 2.23363 (Simulation time: 25 hr 57 min 4 sec) 
 Total Blocks : 262144 Invalid Blocks : 0
Heartbeat CPU 6 instructions: 130000003 cycles: 58201195 heartbeat IPC: 2.29277 cumulative IPC: 2.23363 (Simulation time: 25 hr 57 min 4 sec) 
 Total Blocks : 262144 Invalid Blocks : 0
Heartbeat CPU 7 instructions: 130000003 cycles: 58201213 heartbeat IPC: 2.29275 cumulative IPC: 2.23363 (Simulation time: 25 hr 57 min 4 sec) 
 Total Blocks : 262144 Invalid Blocks : 0
Heartbeat CPU 2 instructions: 140000000 cycles: 62701291 heartbeat IPC: 2.22205 cumulative IPC: 2.23281 (Simulation time: 26 hr 55 min 36 sec) 
 Total Blocks : 262144 Invalid Blocks : 0
Heartbeat CPU 1 instructions: 140000000 cycles: 62701300 heartbeat IPC: 2.22205 cumulative IPC: 2.23281 (Simulation time: 26 hr 55 min 39 sec) 
 Total Blocks : 262144 Invalid Blocks : 0
Heartbeat CPU 0 instructions: 140000000 cycles: 62701301 heartbeat IPC: 2.22205 cumulative IPC: 2.23281 (Simulation time: 26 hr 55 min 39 sec) 
 Total Blocks : 262144 Invalid Blocks : 0
Heartbeat CPU 3 instructions: 140000000 cycles: 62701424 heartbeat IPC: 2.22205 cumulative IPC: 2.2328 (Simulation time: 26 hr 55 min 39 sec) 
 Total Blocks : 262144 Invalid Blocks : 0
Heartbeat CPU 5 instructions: 140000000 cycles: 62701520 heartbeat IPC: 2.22205 cumulative IPC: 2.2328 (Simulation time: 26 hr 55 min 39 sec) 
 Total Blocks : 262144 Invalid Blocks : 0
Heartbeat CPU 4 instructions: 140000000 cycles: 62701548 heartbeat IPC: 2.22205 cumulative IPC: 2.2328 (Simulation time: 26 hr 55 min 39 sec) 
 Total Blocks : 262144 Invalid Blocks : 0
Heartbeat CPU 6 instructions: 140000000 cycles: 62701549 heartbeat IPC: 2.22205 cumulative IPC: 2.2328 (Simulation time: 26 hr 55 min 39 sec) 
 Total Blocks : 262144 Invalid Blocks : 0
Heartbeat CPU 7 instructions: 140000000 cycles: 62701569 heartbeat IPC: 2.22205 cumulative IPC: 2.2328 (Simulation time: 26 hr 55 min 39 sec) 
 Total Blocks : 262144 Invalid Blocks : 0
Heartbeat CPU 2 instructions: 150000000 cycles: 67201844 heartbeat IPC: 2.22195 cumulative IPC: 2.23208 (Simulation time: 27 hr 52 min 21 sec) 
 Total Blocks : 262144 Invalid Blocks : 0
Heartbeat CPU 1 instructions: 150000000 cycles: 67201853 heartbeat IPC: 2.22195 cumulative IPC: 2.23208 (Simulation time: 27 hr 52 min 24 sec) 
 Total Blocks : 262144 Invalid Blocks : 0
Heartbeat CPU 0 instructions: 150000000 cycles: 67201854 heartbeat IPC: 2.22195 cumulative IPC: 2.23208 (Simulation time: 27 hr 52 min 24 sec) 
 Total Blocks : 262144 Invalid Blocks : 0
Heartbeat CPU 3 instructions: 150000000 cycles: 67201972 heartbeat IPC: 2.22195 cumulative IPC: 2.23208 (Simulation time: 27 hr 52 min 24 sec) 
 Total Blocks : 262144 Invalid Blocks : 0
Heartbeat CPU 5 instructions: 150000000 cycles: 67202073 heartbeat IPC: 2.22195 cumulative IPC: 2.23207 (Simulation time: 27 hr 52 min 24 sec) 
 Total Blocks : 262144 Invalid Blocks : 0
Heartbeat CPU 4 instructions: 150000000 cycles: 67202099 heartbeat IPC: 2.22195 cumulative IPC: 2.23207 (Simulation time: 27 hr 52 min 24 sec) 
 Total Blocks : 262144 Invalid Blocks : 0
Heartbeat CPU 6 instructions: 150000000 cycles: 67202101 heartbeat IPC: 2.22195 cumulative IPC: 2.23207 (Simulation time: 27 hr 52 min 24 sec) 
 Total Blocks : 262144 Invalid Blocks : 0
Heartbeat CPU 7 instructions: 150000000 cycles: 67202120 heartbeat IPC: 2.22195 cumulative IPC: 2.23207 (Simulation time: 27 hr 52 min 24 sec) 
 Total Blocks : 262144 Invalid Blocks : 0
Heartbeat CPU 2 instructions: 160000000 cycles: 71702364 heartbeat IPC: 2.22197 cumulative IPC: 2.23145 (Simulation time: 28 hr 46 min 33 sec) 
 Total Blocks : 262144 Invalid Blocks : 0
Heartbeat CPU 1 instructions: 160000000 cycles: 71702375 heartbeat IPC: 2.22196 cumulative IPC: 2.23145 (Simulation time: 28 hr 46 min 35 sec) 
 Total Blocks : 262144 Invalid Blocks : 0
Heartbeat CPU 0 instructions: 160000000 cycles: 71702378 heartbeat IPC: 2.22196 cumulative IPC: 2.23145 (Simulation time: 28 hr 46 min 35 sec) 
 Total Blocks : 262144 Invalid Blocks : 0
Heartbeat CPU 3 instructions: 160000000 cycles: 71702495 heartbeat IPC: 2.22196 cumulative IPC: 2.23144 (Simulation time: 28 hr 46 min 36 sec) 
 Total Blocks : 262144 Invalid Blocks : 0
Heartbeat CPU 5 instructions: 160000000 cycles: 71702597 heartbeat IPC: 2.22196 cumulative IPC: 2.23144 (Simulation time: 28 hr 46 min 36 sec) 
 Total Blocks : 262144 Invalid Blocks : 0
Heartbeat CPU 4 instructions: 160000000 cycles: 71702621 heartbeat IPC: 2.22196 cumulative IPC: 2.23144 (Simulation time: 28 hr 46 min 36 sec) 
 Total Blocks : 262144 Invalid Blocks : 0
Heartbeat CPU 6 instructions: 160000000 cycles: 71702626 heartbeat IPC: 2.22196 cumulative IPC: 2.23144 (Simulation time: 28 hr 46 min 36 sec) 
 Total Blocks : 262144 Invalid Blocks : 0
Heartbeat CPU 7 instructions: 160000000 cycles: 71702646 heartbeat IPC: 2.22196 cumulative IPC: 2.23144 (Simulation time: 28 hr 46 min 36 sec) 
 Total Blocks : 262144 Invalid Blocks : 0
Heartbeat CPU 2 instructions: 170000000 cycles: 76202648 heartbeat IPC: 2.22208 cumulative IPC: 2.23089 (Simulation time: 29 hr 43 min 17 sec) 
 Total Blocks : 262144 Invalid Blocks : 0
Heartbeat CPU 0 instructions: 170000000 cycles: 76202659 heartbeat IPC: 2.22208 cumulative IPC: 2.23089 (Simulation time: 29 hr 43 min 20 sec) 
 Total Blocks : 262144 Invalid Blocks : 0
Heartbeat CPU 1 instructions: 170000000 cycles: 76202666 heartbeat IPC: 2.22208 cumulative IPC: 2.23089 (Simulation time: 29 hr 43 min 20 sec) 
 Total Blocks : 262144 Invalid Blocks : 0
Heartbeat CPU 3 instructions: 170000000 cycles: 76202780 heartbeat IPC: 2.22208 cumulative IPC: 2.23089 (Simulation time: 29 hr 43 min 20 sec) 
 Total Blocks : 262144 Invalid Blocks : 0
Heartbeat CPU 5 instructions: 170000000 cycles: 76202881 heartbeat IPC: 2.22208 cumulative IPC: 2.23089 (Simulation time: 29 hr 43 min 20 sec) 
 Total Blocks : 262144 Invalid Blocks : 0
Heartbeat CPU 4 instructions: 170000000 cycles: 76202904 heartbeat IPC: 2.22208 cumulative IPC: 2.23089 (Simulation time: 29 hr 43 min 20 sec) 
 Total Blocks : 262144 Invalid Blocks : 0
Heartbeat CPU 6 instructions: 170000000 cycles: 76202908 heartbeat IPC: 2.22208 cumulative IPC: 2.23089 (Simulation time: 29 hr 43 min 20 sec) 
 Total Blocks : 262144 Invalid Blocks : 0
Heartbeat CPU 7 instructions: 170000000 cycles: 76202932 heartbeat IPC: 2.22208 cumulative IPC: 2.23089 (Simulation time: 29 hr 43 min 20 sec) 
 Total Blocks : 262144 Invalid Blocks : 0
Heartbeat CPU 2 instructions: 180000001 cycles: 80703336 heartbeat IPC: 2.22188 cumulative IPC: 2.23039 (Simulation time: 30 hr 38 min 58 sec) 
 Total Blocks : 262144 Invalid Blocks : 0
Heartbeat CPU 0 instructions: 180000001 cycles: 80703348 heartbeat IPC: 2.22188 cumulative IPC: 2.23039 (Simulation time: 30 hr 39 min 0 sec) 
 Total Blocks : 262144 Invalid Blocks : 0
Heartbeat CPU 1 instructions: 180000001 cycles: 80703358 heartbeat IPC: 2.22188 cumulative IPC: 2.23039 (Simulation time: 30 hr 39 min 0 sec) 
 Total Blocks : 262144 Invalid Blocks : 0
Heartbeat CPU 3 instructions: 180000001 cycles: 80703466 heartbeat IPC: 2.22188 cumulative IPC: 2.23039 (Simulation time: 30 hr 39 min 0 sec) 
 Total Blocks : 262144 Invalid Blocks : 0
Heartbeat CPU 5 instructions: 180000001 cycles: 80703570 heartbeat IPC: 2.22188 cumulative IPC: 2.23038 (Simulation time: 30 hr 39 min 1 sec) 
 Total Blocks : 262144 Invalid Blocks : 0
Heartbeat CPU 4 instructions: 180000001 cycles: 80703591 heartbeat IPC: 2.22188 cumulative IPC: 2.23038 (Simulation time: 30 hr 39 min 1 sec) 
 Total Blocks : 262144 Invalid Blocks : 0
Heartbeat CPU 6 instructions: 180000001 cycles: 80703598 heartbeat IPC: 2.22188 cumulative IPC: 2.23038 (Simulation time: 30 hr 39 min 1 sec) 
 Total Blocks : 262144 Invalid Blocks : 0
Heartbeat CPU 7 instructions: 180000001 cycles: 80703621 heartbeat IPC: 2.22188 cumulative IPC: 2.23038 (Simulation time: 30 hr 39 min 1 sec) 
 Total Blocks : 262144 Invalid Blocks : 0
Heartbeat CPU 2 instructions: 190000000 cycles: 85203783 heartbeat IPC: 2.222 cumulative IPC: 2.22995 (Simulation time: 31 hr 34 min 31 sec) 
 Total Blocks : 262144 Invalid Blocks : 0
Heartbeat CPU 0 instructions: 190000000 cycles: 85203798 heartbeat IPC: 2.222 cumulative IPC: 2.22995 (Simulation time: 31 hr 34 min 33 sec) 
 Total Blocks : 262144 Invalid Blocks : 0
Heartbeat CPU 1 instructions: 190000000 cycles: 85203807 heartbeat IPC: 2.222 cumulative IPC: 2.22995 (Simulation time: 31 hr 34 min 33 sec) 
 Total Blocks : 262144 Invalid Blocks : 0
Heartbeat CPU 3 instructions: 190000000 cycles: 85203912 heartbeat IPC: 2.222 cumulative IPC: 2.22994 (Simulation time: 31 hr 34 min 33 sec) 
 Total Blocks : 262144 Invalid Blocks : 0
Heartbeat CPU 5 instructions: 190000000 cycles: 85204017 heartbeat IPC: 2.222 cumulative IPC: 2.22994 (Simulation time: 31 hr 34 min 34 sec) 
 Total Blocks : 262144 Invalid Blocks : 0
Heartbeat CPU 4 instructions: 190000000 cycles: 85204039 heartbeat IPC: 2.222 cumulative IPC: 2.22994 (Simulation time: 31 hr 34 min 34 sec) 
 Total Blocks : 262144 Invalid Blocks : 0
Heartbeat CPU 6 instructions: 190000000 cycles: 85204046 heartbeat IPC: 2.222 cumulative IPC: 2.22994 (Simulation time: 31 hr 34 min 34 sec) 
 Total Blocks : 262144 Invalid Blocks : 0
Heartbeat CPU 7 instructions: 190000000 cycles: 85204069 heartbeat IPC: 2.222 cumulative IPC: 2.22994 (Simulation time: 31 hr 34 min 34 sec) 
 Total Blocks : 262144 Invalid Blocks : 0
Heartbeat CPU 0 instructions: 200000000 cycles: 89660856 heartbeat IPC: 2.24363 cumulative IPC: 2.23063 (Simulation time: 34 hr 49 min 14 sec) 
 Total Blocks : 262144 Invalid Blocks : 0
Heartbeat CPU 2 instructions: 200000000 cycles: 89660863 heartbeat IPC: 2.24362 cumulative IPC: 2.23063 (Simulation time: 34 hr 49 min 15 sec) 
 Total Blocks : 262144 Invalid Blocks : 0
Heartbeat CPU 1 instructions: 200000000 cycles: 89660869 heartbeat IPC: 2.24363 cumulative IPC: 2.23063 (Simulation time: 34 hr 49 min 15 sec) 
 Total Blocks : 262144 Invalid Blocks : 0
Heartbeat CPU 3 instructions: 200000000 cycles: 89660931 heartbeat IPC: 2.24365 cumulative IPC: 2.23063 (Simulation time: 34 hr 49 min 15 sec) 
 Total Blocks : 262144 Invalid Blocks : 0
Heartbeat CPU 5 instructions: 200000000 cycles: 89661070 heartbeat IPC: 2.24363 cumulative IPC: 2.23062 (Simulation time: 34 hr 49 min 15 sec) 
 Total Blocks : 262144 Invalid Blocks : 0
Heartbeat CPU 4 instructions: 200000000 cycles: 89661095 heartbeat IPC: 2.24363 cumulative IPC: 2.23062 (Simulation time: 34 hr 49 min 15 sec) 
 Total Blocks : 262144 Invalid Blocks : 0
Heartbeat CPU 7 instructions: 200000000 cycles: 89661096 heartbeat IPC: 2.24365 cumulative IPC: 2.23062 (Simulation time: 34 hr 49 min 15 sec) 
 Total Blocks : 262144 Invalid Blocks : 0
Heartbeat CPU 6 instructions: 200000000 cycles: 89661114 heartbeat IPC: 2.24363 cumulative IPC: 2.23062 (Simulation time: 34 hr 49 min 15 sec) 
 Total Blocks : 262144 Invalid Blocks : 0

Warmup complete CPU 0 instructions: 200000664 cycles: 89661115 (Simulation time: 34 hr 49 min 15 sec) 
Warmup complete CPU 1 instructions: 200000632 cycles: 89661115 (Simulation time: 34 hr 49 min 15 sec) 
Warmup complete CPU 2 instructions: 200000648 cycles: 89661115 (Simulation time: 34 hr 49 min 15 sec) 
Warmup complete CPU 3 instructions: 200000460 cycles: 89661115 (Simulation time: 34 hr 49 min 15 sec) 
Warmup complete CPU 4 instructions: 200000067 cycles: 89661115 (Simulation time: 34 hr 49 min 15 sec) 
Warmup complete CPU 5 instructions: 200000108 cycles: 89661115 (Simulation time: 34 hr 49 min 15 sec) 
Warmup complete CPU 6 instructions: 200000004 cycles: 89661115 (Simulation time: 34 hr 49 min 15 sec) 
Warmup complete CPU 7 instructions: 200000067 cycles: 89661114 (Simulation time: 34 hr 49 min 15 sec) 

Heartbeat CPU 1 instructions: 210000000 cycles: 113861392 heartbeat IPC: 0.413214 cumulative IPC: 0.413192 (Simulation time: 36 hr 41 min 27 sec) 
 Total Blocks : 262144 Invalid Blocks : 0
Heartbeat CPU 3 instructions: 210000000 cycles: 113870651 heartbeat IPC: 0.413057 cumulative IPC: 0.413041 (Simulation time: 36 hr 41 min 31 sec) 
 Total Blocks : 262144 Invalid Blocks : 0
Heartbeat CPU 5 instructions: 210000000 cycles: 113880653 heartbeat IPC: 0.412889 cumulative IPC: 0.412885 (Simulation time: 36 hr 41 min 33 sec) 
 Total Blocks : 262144 Invalid Blocks : 0
Heartbeat CPU 6 instructions: 210000000 cycles: 113890152 heartbeat IPC: 0.412728 cumulative IPC: 0.412728 (Simulation time: 36 hr 41 min 34 sec) 
 Total Blocks : 262144 Invalid Blocks : 0
Heartbeat CPU 4 instructions: 210000000 cycles: 113909274 heartbeat IPC: 0.412402 cumulative IPC: 0.4124 (Simulation time: 36 hr 41 min 38 sec) 
 Total Blocks : 262144 Invalid Blocks : 0
Heartbeat CPU 7 instructions: 210000000 cycles: 113934093 heartbeat IPC: 0.41198 cumulative IPC: 0.411978 (Simulation time: 36 hr 41 min 43 sec) 
 Total Blocks : 262144 Invalid Blocks : 0
Heartbeat CPU 0 instructions: 210000000 cycles: 113937479 heartbeat IPC: 0.411919 cumulative IPC: 0.411896 (Simulation time: 36 hr 41 min 44 sec) 
 Total Blocks : 262144 Invalid Blocks : 0
Heartbeat CPU 2 instructions: 210000000 cycles: 113947584 heartbeat IPC: 0.411748 cumulative IPC: 0.411725 (Simulation time: 36 hr 41 min 49 sec) 
 Total Blocks : 262144 Invalid Blocks : 0
Heartbeat CPU 1 instructions: 220000000 cycles: 130557901 heartbeat IPC: 0.598928 cumulative IPC: 0.489021 (Simulation time: 37 hr 53 min 4 sec) 
 Total Blocks : 262144 Invalid Blocks : 0
Heartbeat CPU 3 instructions: 220000000 cycles: 130567000 heartbeat IPC: 0.598933 cumulative IPC: 0.488916 (Simulation time: 37 hr 53 min 10 sec) 
 Total Blocks : 262144 Invalid Blocks : 0
Heartbeat CPU 5 instructions: 220000000 cycles: 130577744 heartbeat IPC: 0.598907 cumulative IPC: 0.488796 (Simulation time: 37 hr 53 min 13 sec) 
 Total Blocks : 262144 Invalid Blocks : 0
Heartbeat CPU 6 instructions: 220000000 cycles: 130585535 heartbeat IPC: 0.598968 cumulative IPC: 0.488706 (Simulation time: 37 hr 53 min 19 sec) 
 Total Blocks : 262144 Invalid Blocks : 0
Heartbeat CPU 4 instructions: 220000000 cycles: 130606604 heartbeat IPC: 0.598898 cumulative IPC: 0.488453 (Simulation time: 37 hr 53 min 28 sec) 
 Total Blocks : 262144 Invalid Blocks : 0
Heartbeat CPU 7 instructions: 220000000 cycles: 130631116 heartbeat IPC: 0.598909 cumulative IPC: 0.48816 (Simulation time: 37 hr 53 min 32 sec) 
 Total Blocks : 262144 Invalid Blocks : 0
Heartbeat CPU 0 instructions: 220000000 cycles: 130633181 heartbeat IPC: 0.598957 cumulative IPC: 0.488121 (Simulation time: 37 hr 53 min 33 sec) 
 Total Blocks : 262144 Invalid Blocks : 0
Heartbeat CPU 2 instructions: 220000000 cycles: 130643922 heartbeat IPC: 0.598934 cumulative IPC: 0.487994 (Simulation time: 37 hr 53 min 35 sec) 
 Total Blocks : 262144 Invalid Blocks : 0
Heartbeat CPU 1 instructions: 230000000 cycles: 147268646 heartbeat IPC: 0.598417 cumulative IPC: 0.520754 (Simulation time: 39 hr 1 min 9 sec) 
 Total Blocks : 262144 Invalid Blocks : 0
Heartbeat CPU 3 instructions: 230000000 cycles: 147278279 heartbeat IPC: 0.598398 cumulative IPC: 0.52067 (Simulation time: 39 hr 1 min 13 sec) 
 Total Blocks : 262144 Invalid Blocks : 0
Heartbeat CPU 5 instructions: 230000000 cycles: 147289034 heartbeat IPC: 0.598398 cumulative IPC: 0.520579 (Simulation time: 39 hr 1 min 14 sec) 
 Total Blocks : 262144 Invalid Blocks : 0
Heartbeat CPU 6 instructions: 230000000 cycles: 147298123 heartbeat IPC: 0.598351 cumulative IPC: 0.520499 (Simulation time: 39 hr 1 min 16 sec) 
 Total Blocks : 262144 Invalid Blocks : 0
Heartbeat CPU 4 instructions: 230000000 cycles: 147318404 heartbeat IPC: 0.59838 cumulative IPC: 0.520315 (Simulation time: 39 hr 1 min 19 sec) 
 Total Blocks : 262144 Invalid Blocks : 0
Heartbeat CPU 7 instructions: 230000000 cycles: 147343852 heartbeat IPC: 0.598346 cumulative IPC: 0.520085 (Simulation time: 39 hr 1 min 24 sec) 
 Total Blocks : 262144 Invalid Blocks : 0
Heartbeat CPU 0 instructions: 230000000 cycles: 147345901 heartbeat IPC: 0.598347 cumulative IPC: 0.520056 (Simulation time: 39 hr 1 min 24 sec) 
 Total Blocks : 262144 Invalid Blocks : 0
Heartbeat CPU 2 instructions: 230000000 cycles: 147354131 heartbeat IPC: 0.598437 cumulative IPC: 0.519982 (Simulation time: 39 hr 1 min 26 sec) 
 Total Blocks : 262144 Invalid Blocks : 0
Heartbeat CPU 1 instructions: 240000000 cycles: 163966415 heartbeat IPC: 0.598882 cumulative IPC: 0.538311 (Simulation time: 40 hr 8 min 13 sec) 
 Total Blocks : 262144 Invalid Blocks : 0
Heartbeat CPU 3 instructions: 240000000 cycles: 163976031 heartbeat IPC: 0.598883 cumulative IPC: 0.538244 (Simulation time: 40 hr 8 min 18 sec) 
 Total Blocks : 262144 Invalid Blocks : 0
Heartbeat CPU 5 instructions: 240000000 cycles: 163987800 heartbeat IPC: 0.598847 cumulative IPC: 0.538163 (Simulation time: 40 hr 8 min 20 sec) 
 Total Blocks : 262144 Invalid Blocks : 0
Heartbeat CPU 6 instructions: 240000000 cycles: 163996513 heartbeat IPC: 0.59886 cumulative IPC: 0.538102 (Simulation time: 40 hr 8 min 21 sec) 
 Total Blocks : 262144 Invalid Blocks : 0
Heartbeat CPU 4 instructions: 240000000 cycles: 164018263 heartbeat IPC: 0.598807 cumulative IPC: 0.537943 (Simulation time: 40 hr 8 min 30 sec) 
 Total Blocks : 262144 Invalid Blocks : 0
Heartbeat CPU 7 instructions: 240000000 cycles: 164041424 heartbeat IPC: 0.598889 cumulative IPC: 0.537776 (Simulation time: 40 hr 8 min 50 sec) 
 Total Blocks : 262144 Invalid Blocks : 0
Heartbeat CPU 0 instructions: 240000000 cycles: 164046237 heartbeat IPC: 0.59879 cumulative IPC: 0.537733 (Simulation time: 40 hr 8 min 53 sec) 
 Total Blocks : 262144 Invalid Blocks : 0
Heartbeat CPU 2 instructions: 240000000 cycles: 164053156 heartbeat IPC: 0.598837 cumulative IPC: 0.537683 (Simulation time: 40 hr 8 min 54 sec) 
 Total Blocks : 262144 Invalid Blocks : 0
Heartbeat CPU 1 instructions: 250000001 cycles: 180664996 heartbeat IPC: 0.598853 cumulative IPC: 0.54942 (Simulation time: 41 hr 17 min 4 sec) 
 Total Blocks : 262144 Invalid Blocks : 0
Heartbeat CPU 3 instructions: 250000001 cycles: 180674508 heartbeat IPC: 0.598857 cumulative IPC: 0.549365 (Simulation time: 41 hr 17 min 10 sec) 
 Total Blocks : 262144 Invalid Blocks : 0
Heartbeat CPU 5 instructions: 250000001 cycles: 180688289 heartbeat IPC: 0.598785 cumulative IPC: 0.549285 (Simulation time: 41 hr 17 min 12 sec) 
 Total Blocks : 262144 Invalid Blocks : 0
Heartbeat CPU 6 instructions: 250000001 cycles: 180696344 heartbeat IPC: 0.598809 cumulative IPC: 0.549238 (Simulation time: 41 hr 17 min 14 sec) 
 Total Blocks : 262144 Invalid Blocks : 0
Heartbeat CPU 4 instructions: 250000001 cycles: 180717436 heartbeat IPC: 0.598832 cumulative IPC: 0.54911 (Simulation time: 41 hr 17 min 20 sec) 
 Total Blocks : 262144 Invalid Blocks : 0
Heartbeat CPU 7 instructions: 250000001 cycles: 180739406 heartbeat IPC: 0.598875 cumulative IPC: 0.548977 (Simulation time: 41 hr 17 min 27 sec) 
 Total Blocks : 262144 Invalid Blocks : 0
Heartbeat CPU 0 instructions: 250000001 cycles: 180747574 heartbeat IPC: 0.598755 cumulative IPC: 0.548922 (Simulation time: 41 hr 17 min 36 sec) 
 Total Blocks : 262144 Invalid Blocks : 0
Heartbeat CPU 2 instructions: 250000001 cycles: 180751703 heartbeat IPC: 0.598855 cumulative IPC: 0.548897 (Simulation time: 41 hr 17 min 42 sec) 
 Total Blocks : 262144 Invalid Blocks : 0
Heartbeat CPU 1 instructions: 260000001 cycles: 197366069 heartbeat IPC: 0.598764 cumulative IPC: 0.557072 (Simulation time: 42 hr 28 min 12 sec) 
 Total Blocks : 262144 Invalid Blocks : 0
Heartbeat CPU 3 instructions: 260000001 cycles: 197376756 heartbeat IPC: 0.598722 cumulative IPC: 0.557018 (Simulation time: 42 hr 28 min 16 sec) 
 Total Blocks : 262144 Invalid Blocks : 0
Heartbeat CPU 5 instructions: 260000001 cycles: 197389597 heartbeat IPC: 0.598755 cumulative IPC: 0.556955 (Simulation time: 42 hr 28 min 18 sec) 
 Total Blocks : 262144 Invalid Blocks : 0
Heartbeat CPU 6 instructions: 260000001 cycles: 197398648 heartbeat IPC: 0.59872 cumulative IPC: 0.556909 (Simulation time: 42 hr 28 min 20 sec) 
 Total Blocks : 262144 Invalid Blocks : 0
Heartbeat CPU 4 instructions: 260000001 cycles: 197421070 heartbeat IPC: 0.598672 cumulative IPC: 0.556792 (Simulation time: 42 hr 28 min 39 sec) 
 Total Blocks : 262144 Invalid Blocks : 0
Heartbeat CPU 7 instructions: 260000001 cycles: 197440707 heartbeat IPC: 0.598756 cumulative IPC: 0.556691 (Simulation time: 42 hr 28 min 44 sec) 
 Total Blocks : 262144 Invalid Blocks : 0
Heartbeat CPU 0 instructions: 260000001 cycles: 197449202 heartbeat IPC: 0.598744 cumulative IPC: 0.556642 (Simulation time: 42 hr 28 min 46 sec) 
 Total Blocks : 262144 Invalid Blocks : 0
Heartbeat CPU 2 instructions: 260000001 cycles: 197454422 heartbeat IPC: 0.598705 cumulative IPC: 0.556615 (Simulation time: 42 hr 28 min 47 sec) 
 Total Blocks : 262144 Invalid Blocks : 0
Heartbeat CPU 6 instructions: 270000000 cycles: 223926251 heartbeat IPC: 0.376966 cumulative IPC: 0.521356 (Simulation time: 44 hr 59 min 6 sec) 
 Total Blocks : 262144 Invalid Blocks : 0
Heartbeat CPU 1 instructions: 270000000 cycles: 223930339 heartbeat IPC: 0.376445 cumulative IPC: 0.521336 (Simulation time: 44 hr 59 min 9 sec) 
 Total Blocks : 262144 Invalid Blocks : 0
Heartbeat CPU 4 instructions: 270000000 cycles: 224142761 heartbeat IPC: 0.374228 cumulative IPC: 0.520517 (Simulation time: 45 hr 0 min 28 sec) 
 Total Blocks : 262144 Invalid Blocks : 0
Heartbeat CPU 3 instructions: 270000000 cycles: 224176325 heartbeat IPC: 0.37314 cumulative IPC: 0.520384 (Simulation time: 45 hr 0 min 41 sec) 
 Total Blocks : 262144 Invalid Blocks : 0
Heartbeat CPU 0 instructions: 270000000 cycles: 224265785 heartbeat IPC: 0.372904 cumulative IPC: 0.520036 (Simulation time: 45 hr 1 min 18 sec) 
 Total Blocks : 262144 Invalid Blocks : 0
Heartbeat CPU 5 instructions: 270000000 cycles: 224363896 heartbeat IPC: 0.370723 cumulative IPC: 0.519662 (Simulation time: 45 hr 1 min 51 sec) 
 Total Blocks : 262144 Invalid Blocks : 0
Heartbeat CPU 7 instructions: 270000000 cycles: 224517371 heartbeat IPC: 0.369322 cumulative IPC: 0.519071 (Simulation time: 45 hr 2 min 52 sec) 
 Total Blocks : 262144 Invalid Blocks : 0
Heartbeat CPU 2 instructions: 270000000 cycles: 224716466 heartbeat IPC: 0.36681 cumulative IPC: 0.518301 (Simulation time: 45 hr 4 min 4 sec) 
 Total Blocks : 262144 Invalid Blocks : 0
Heartbeat CPU 1 instructions: 280000003 cycles: 258228409 heartbeat IPC: 0.291562 cumulative IPC: 0.474584 (Simulation time: 47 hr 52 min 13 sec) 
 Total Blocks : 262144 Invalid Blocks : 0
Heartbeat CPU 6 instructions: 280000003 cycles: 258308379 heartbeat IPC: 0.290849 cumulative IPC: 0.474363 (Simulation time: 47 hr 52 min 41 sec) 
 Total Blocks : 262144 Invalid Blocks : 0
Heartbeat CPU 4 instructions: 280000003 cycles: 258453322 heartbeat IPC: 0.291456 cumulative IPC: 0.473955 (Simulation time: 47 hr 53 min 10 sec) 
 Total Blocks : 262144 Invalid Blocks : 0
Heartbeat CPU 3 instructions: 280000003 cycles: 258467558 heartbeat IPC: 0.29162 cumulative IPC: 0.473913 (Simulation time: 47 hr 53 min 13 sec) 
 Total Blocks : 262144 Invalid Blocks : 0
Heartbeat CPU 5 instructions: 280000003 cycles: 258491614 heartbeat IPC: 0.293017 cumulative IPC: 0.473847 (Simulation time: 47 hr 53 min 18 sec) 
 Total Blocks : 262144 Invalid Blocks : 0
Heartbeat CPU 0 instructions: 280000003 cycles: 258497274 heartbeat IPC: 0.292129 cumulative IPC: 0.473828 (Simulation time: 47 hr 53 min 21 sec) 
 Total Blocks : 262144 Invalid Blocks : 0
Heartbeat CPU 7 instructions: 280000003 cycles: 258515443 heartbeat IPC: 0.294134 cumulative IPC: 0.473781 (Simulation time: 47 hr 53 min 25 sec) 
 Total Blocks : 262144 Invalid Blocks : 0
Heartbeat CPU 2 instructions: 280000003 cycles: 258652005 heartbeat IPC: 0.294676 cumulative IPC: 0.473394 (Simulation time: 47 hr 53 min 56 sec) 
 Total Blocks : 262144 Invalid Blocks : 0
Heartbeat CPU 1 instructions: 290000000 cycles: 274945139 heartbeat IPC: 0.598203 cumulative IPC: 0.485737 (Simulation time: 48 hr 56 min 50 sec) 
 Total Blocks : 262144 Invalid Blocks : 0
Heartbeat CPU 6 instructions: 290000000 cycles: 275027236 heartbeat IPC: 0.598127 cumulative IPC: 0.485526 (Simulation time: 48 hr 57 min 4 sec) 
 Total Blocks : 262144 Invalid Blocks : 0
Heartbeat CPU 4 instructions: 290000000 cycles: 275169619 heartbeat IPC: 0.598218 cumulative IPC: 0.485153 (Simulation time: 48 hr 57 min 34 sec) 
 Total Blocks : 262144 Invalid Blocks : 0
Heartbeat CPU 3 instructions: 290000000 cycles: 275184721 heartbeat IPC: 0.598187 cumulative IPC: 0.485111 (Simulation time: 48 hr 57 min 42 sec) 
 Total Blocks : 262144 Invalid Blocks : 0
Heartbeat CPU 5 instructions: 290000000 cycles: 275209550 heartbeat IPC: 0.59816 cumulative IPC: 0.485048 (Simulation time: 48 hr 57 min 50 sec) 
 Total Blocks : 262144 Invalid Blocks : 0
Heartbeat CPU 0 instructions: 290000000 cycles: 275211600 heartbeat IPC: 0.598289 cumulative IPC: 0.48504 (Simulation time: 48 hr 57 min 54 sec) 
 Total Blocks : 262144 Invalid Blocks : 0
Heartbeat CPU 7 instructions: 290000000 cycles: 275232072 heartbeat IPC: 0.598207 cumulative IPC: 0.484989 (Simulation time: 48 hr 57 min 57 sec) 
 Total Blocks : 262144 Invalid Blocks : 0
Heartbeat CPU 2 instructions: 290000000 cycles: 275369492 heartbeat IPC: 0.598176 cumulative IPC: 0.484627 (Simulation time: 48 hr 58 min 22 sec) 
 Total Blocks : 262144 Invalid Blocks : 0
Heartbeat CPU 1 instructions: 300000003 cycles: 291643567 heartbeat IPC: 0.598859 cumulative IPC: 0.495089 (Simulation time: 49 hr 58 min 58 sec) 
 Total Blocks : 262144 Invalid Blocks : 0
Heartbeat CPU 6 instructions: 300000003 cycles: 291726091 heartbeat IPC: 0.598844 cumulative IPC: 0.49489 (Simulation time: 49 hr 59 min 27 sec) 
 Total Blocks : 262144 Invalid Blocks : 0
Heartbeat CPU 4 instructions: 300000003 cycles: 291867492 heartbeat IPC: 0.598879 cumulative IPC: 0.494544 (Simulation time: 49 hr 59 min 57 sec) 
 Total Blocks : 262144 Invalid Blocks : 0
Heartbeat CPU 3 instructions: 300000003 cycles: 291881793 heartbeat IPC: 0.598908 cumulative IPC: 0.494507 (Simulation time: 50 hr 0 min 1 sec) 
 Total Blocks : 262144 Invalid Blocks : 0
Heartbeat CPU 5 instructions: 300000003 cycles: 291907110 heartbeat IPC: 0.59889 cumulative IPC: 0.494447 (Simulation time: 50 hr 0 min 5 sec) 
 Total Blocks : 262144 Invalid Blocks : 0
Heartbeat CPU 0 instructions: 300000003 cycles: 291908361 heartbeat IPC: 0.598919 cumulative IPC: 0.494441 (Simulation time: 50 hr 0 min 6 sec) 
 Total Blocks : 262144 Invalid Blocks : 0
Heartbeat CPU 7 instructions: 300000003 cycles: 291929464 heartbeat IPC: 0.598896 cumulative IPC: 0.494392 (Simulation time: 50 hr 0 min 9 sec) 
 Total Blocks : 262144 Invalid Blocks : 0
Heartbeat CPU 2 instructions: 300000003 cycles: 292067855 heartbeat IPC: 0.598861 cumulative IPC: 0.494052 (Simulation time: 50 hr 0 min 38 sec) 
 Total Blocks : 262144 Invalid Blocks : 0
Heartbeat CPU 1 instructions: 310000000 cycles: 308357234 heartbeat IPC: 0.598313 cumulative IPC: 0.502978 (Simulation time: 50 hr 58 min 47 sec) 
 Total Blocks : 262144 Invalid Blocks : 0
Heartbeat CPU 6 instructions: 310000000 cycles: 308439411 heartbeat IPC: 0.598325 cumulative IPC: 0.502792 (Simulation time: 50 hr 59 min 5 sec) 
 Total Blocks : 262144 Invalid Blocks : 0
Heartbeat CPU 4 instructions: 310000000 cycles: 308578721 heartbeat IPC: 0.5984 cumulative IPC: 0.502472 (Simulation time: 50 hr 59 min 32 sec) 
 Total Blocks : 262144 Invalid Blocks : 0
Heartbeat CPU 3 instructions: 310000000 cycles: 308591628 heartbeat IPC: 0.59845 cumulative IPC: 0.50244 (Simulation time: 50 hr 59 min 35 sec) 
 Total Blocks : 262144 Invalid Blocks : 0
Heartbeat CPU 5 instructions: 310000000 cycles: 308617237 heartbeat IPC: 0.598439 cumulative IPC: 0.502383 (Simulation time: 50 hr 59 min 40 sec) 
 Total Blocks : 262144 Invalid Blocks : 0
Heartbeat CPU 0 instructions: 310000000 cycles: 308618132 heartbeat IPC: 0.598452 cumulative IPC: 0.502379 (Simulation time: 50 hr 59 min 40 sec) 
 Total Blocks : 262144 Invalid Blocks : 0
Heartbeat CPU 7 instructions: 310000000 cycles: 308639944 heartbeat IPC: 0.598427 cumulative IPC: 0.502331 (Simulation time: 50 hr 59 min 44 sec) 
 Total Blocks : 262144 Invalid Blocks : 0
Heartbeat CPU 2 instructions: 310000000 cycles: 308778950 heartbeat IPC: 0.598405 cumulative IPC: 0.50201 (Simulation time: 51 hr 0 min 20 sec) 
 Total Blocks : 262144 Invalid Blocks : 0
Heartbeat CPU 1 instructions: 320000002 cycles: 325054907 heartbeat IPC: 0.598886 cumulative IPC: 0.509781 (Simulation time: 51 hr 58 min 24 sec) 
 Total Blocks : 262144 Invalid Blocks : 0
Heartbeat CPU 6 instructions: 320000002 cycles: 325137953 heartbeat IPC: 0.598855 cumulative IPC: 0.509604 (Simulation time: 51 hr 58 min 40 sec) 
 Total Blocks : 262144 Invalid Blocks : 0
Heartbeat CPU 4 instructions: 320000002 cycles: 325276275 heartbeat IPC: 0.59889 cumulative IPC: 0.509305 (Simulation time: 51 hr 59 min 21 sec) 
 Total Blocks : 262144 Invalid Blocks : 0
Heartbeat CPU 3 instructions: 320000002 cycles: 325284400 heartbeat IPC: 0.599062 cumulative IPC: 0.509286 (Simulation time: 51 hr 59 min 23 sec) 
 Total Blocks : 262144 Invalid Blocks : 0
Heartbeat CPU 5 instructions: 320000002 cycles: 325312004 heartbeat IPC: 0.59899 cumulative IPC: 0.509227 (Simulation time: 51 hr 59 min 29 sec) 
 Total Blocks : 262144 Invalid Blocks : 0
Heartbeat CPU 0 instructions: 320000002 cycles: 325313261 heartbeat IPC: 0.598977 cumulative IPC: 0.509222 (Simulation time: 51 hr 59 min 30 sec) 
 Total Blocks : 262144 Invalid Blocks : 0
Heartbeat CPU 7 instructions: 320000002 cycles: 325334299 heartbeat IPC: 0.599005 cumulative IPC: 0.509179 (Simulation time: 51 hr 59 min 34 sec) 
 Total Blocks : 262144 Invalid Blocks : 0
Heartbeat CPU 2 instructions: 320000002 cycles: 325475018 heartbeat IPC: 0.598944 cumulative IPC: 0.508873 (Simulation time: 51 hr 59 min 58 sec) 
 Total Blocks : 262144 Invalid Blocks : 0
Heartbeat CPU 1 instructions: 330000000 cycles: 341767882 heartbeat IPC: 0.598337 cumulative IPC: 0.515652 (Simulation time: 52 hr 58 min 19 sec) 
 Total Blocks : 262144 Invalid Blocks : 0
Heartbeat CPU 6 instructions: 330000000 cycles: 341850256 heartbeat IPC: 0.598361 cumulative IPC: 0.515486 (Simulation time: 52 hr 58 min 34 sec) 
 Total Blocks : 262144 Invalid Blocks : 0
Heartbeat CPU 4 instructions: 330000000 cycles: 341986758 heartbeat IPC: 0.598427 cumulative IPC: 0.515207 (Simulation time: 52 hr 59 min 4 sec) 
 Total Blocks : 262144 Invalid Blocks : 0
Heartbeat CPU 3 instructions: 330000000 cycles: 341991697 heartbeat IPC: 0.598541 cumulative IPC: 0.515195 (Simulation time: 52 hr 59 min 5 sec) 
 Total Blocks : 262144 Invalid Blocks : 0
Heartbeat CPU 5 instructions: 330000000 cycles: 342020728 heartbeat IPC: 0.59849 cumulative IPC: 0.515137 (Simulation time: 52 hr 59 min 9 sec) 
 Total Blocks : 262144 Invalid Blocks : 0
Heartbeat CPU 0 instructions: 330000000 cycles: 342022810 heartbeat IPC: 0.59846 cumulative IPC: 0.515131 (Simulation time: 52 hr 59 min 12 sec) 
 Total Blocks : 262144 Invalid Blocks : 0
Heartbeat CPU 7 instructions: 330000000 cycles: 342043646 heartbeat IPC: 0.598467 cumulative IPC: 0.515091 (Simulation time: 52 hr 59 min 16 sec) 
 Total Blocks : 262144 Invalid Blocks : 0
Heartbeat CPU 2 instructions: 330000000 cycles: 342186615 heartbeat IPC: 0.598387 cumulative IPC: 0.514797 (Simulation time: 52 hr 59 min 56 sec) 
 Total Blocks : 262144 Invalid Blocks : 0
Heartbeat CPU 1 instructions: 340000000 cycles: 360895881 heartbeat IPC: 0.522794 cumulative IPC: 0.516156 (Simulation time: 54 hr 17 min 30 sec) 
 Total Blocks : 262144 Invalid Blocks : 0
Heartbeat CPU 6 instructions: 340000000 cycles: 361249786 heartbeat IPC: 0.515476 cumulative IPC: 0.515485 (Simulation time: 54 hr 19 min 38 sec) 
 Total Blocks : 262144 Invalid Blocks : 0
Heartbeat CPU 3 instructions: 340000002 cycles: 361412930 heartbeat IPC: 0.5149 cumulative IPC: 0.515174 (Simulation time: 54 hr 20 min 38 sec) 
 Total Blocks : 262144 Invalid Blocks : 0
Heartbeat CPU 4 instructions: 340000000 cycles: 361422514 heartbeat IPC: 0.514516 cumulative IPC: 0.515158 (Simulation time: 54 hr 20 min 42 sec) 
 Total Blocks : 262144 Invalid Blocks : 0
Heartbeat CPU 5 instructions: 340000000 cycles: 361525811 heartbeat IPC: 0.512687 cumulative IPC: 0.514962 (Simulation time: 54 hr 21 min 13 sec) 
 Total Blocks : 262144 Invalid Blocks : 0
Heartbeat CPU 0 instructions: 340000000 cycles: 361599358 heartbeat IPC: 0.510815 cumulative IPC: 0.51482 (Simulation time: 54 hr 21 min 38 sec) 
 Total Blocks : 262144 Invalid Blocks : 0
Heartbeat CPU 7 instructions: 340000000 cycles: 361670778 heartbeat IPC: 0.509499 cumulative IPC: 0.514687 (Simulation time: 54 hr 22 min 12 sec) 
 Total Blocks : 262144 Invalid Blocks : 0
Heartbeat CPU 2 instructions: 340000000 cycles: 361817312 heartbeat IPC: 0.509406 cumulative IPC: 0.514408 (Simulation time: 54 hr 23 min 1 sec) 
 Total Blocks : 262144 Invalid Blocks : 0
Heartbeat CPU 6 instructions: 350000003 cycles: 398340730 heartbeat IPC: 0.269608 cumulative IPC: 0.485941 (Simulation time: 57 hr 17 min 47 sec) 
 Total Blocks : 262144 Invalid Blocks : 0
Heartbeat CPU 1 instructions: 350000003 cycles: 398394895 heartbeat IPC: 0.266674 cumulative IPC: 0.485853 (Simulation time: 57 hr 17 min 55 sec) 
 Total Blocks : 262144 Invalid Blocks : 0
Heartbeat CPU 3 instructions: 350000003 cycles: 398477891 heartbeat IPC: 0.269797 cumulative IPC: 0.485723 (Simulation time: 57 hr 18 min 11 sec) 
 Total Blocks : 262144 Invalid Blocks : 0
Heartbeat CPU 4 instructions: 350000003 cycles: 398635560 heartbeat IPC: 0.268723 cumulative IPC: 0.485477 (Simulation time: 57 hr 18 min 37 sec) 
 Total Blocks : 262144 Invalid Blocks : 0
Heartbeat CPU 5 instructions: 350000003 cycles: 398746735 heartbeat IPC: 0.268666 cumulative IPC: 0.485302 (Simulation time: 57 hr 18 min 53 sec) 
 Total Blocks : 262144 Invalid Blocks : 0
Heartbeat CPU 0 instructions: 350000003 cycles: 398748602 heartbeat IPC: 0.269185 cumulative IPC: 0.485297 (Simulation time: 57 hr 18 min 55 sec) 
 Total Blocks : 262144 Invalid Blocks : 0
Heartbeat CPU 7 instructions: 350000003 cycles: 398785951 heartbeat IPC: 0.269432 cumulative IPC: 0.485241 (Simulation time: 57 hr 19 min 0 sec) 
 Total Blocks : 262144 Invalid Blocks : 0
Heartbeat CPU 2 instructions: 350000003 cycles: 398856210 heartbeat IPC: 0.269987 cumulative IPC: 0.485129 (Simulation time: 57 hr 19 min 21 sec) 
 Total Blocks : 262144 Invalid Blocks : 0
Heartbeat CPU 6 instructions: 360000001 cycles: 419237456 heartbeat IPC: 0.478544 cumulative IPC: 0.485472 (Simulation time: 58 hr 18 min 24 sec) 
 Total Blocks : 262144 Invalid Blocks : 0
Heartbeat CPU 1 instructions: 360000001 cycles: 419292557 heartbeat IPC: 0.478522 cumulative IPC: 0.485389 (Simulation time: 58 hr 18 min 31 sec) 
 Total Blocks : 262144 Invalid Blocks : 0
Heartbeat CPU 3 instructions: 360000001 cycles: 419378472 heartbeat IPC: 0.478456 cumulative IPC: 0.485263 (Simulation time: 58 hr 18 min 45 sec) 
 Total Blocks : 262144 Invalid Blocks : 0
Heartbeat CPU 4 instructions: 360000001 cycles: 419532113 heartbeat IPC: 0.478548 cumulative IPC: 0.485038 (Simulation time: 58 hr 19 min 7 sec) 
 Total Blocks : 262144 Invalid Blocks : 0
Heartbeat CPU 5 instructions: 360000001 cycles: 419643689 heartbeat IPC: 0.478539 cumulative IPC: 0.484874 (Simulation time: 58 hr 19 min 27 sec) 
 Total Blocks : 262144 Invalid Blocks : 0
Heartbeat CPU 0 instructions: 360000001 cycles: 419643740 heartbeat IPC: 0.47858 cumulative IPC: 0.484872 (Simulation time: 58 hr 19 min 28 sec) 
 Total Blocks : 262144 Invalid Blocks : 0
Heartbeat CPU 7 instructions: 360000001 cycles: 419685973 heartbeat IPC: 0.478468 cumulative IPC: 0.484812 (Simulation time: 58 hr 19 min 42 sec) 
 Total Blocks : 262144 Invalid Blocks : 0
Heartbeat CPU 2 instructions: 360000001 cycles: 419754923 heartbeat IPC: 0.478498 cumulative IPC: 0.484709 (Simulation time: 58 hr 20 min 1 sec) 
 Total Blocks : 262144 Invalid Blocks : 0
Heartbeat CPU 6 instructions: 370000002 cycles: 440139546 heartbeat IPC: 0.478421 cumulative IPC: 0.485051 (Simulation time: 59 hr 17 min 42 sec) 
 Total Blocks : 262144 Invalid Blocks : 0
Heartbeat CPU 1 instructions: 370000002 cycles: 440193816 heartbeat IPC: 0.47844 cumulative IPC: 0.484974 (Simulation time: 59 hr 17 min 52 sec) 
 Total Blocks : 262144 Invalid Blocks : 0
Heartbeat CPU 3 instructions: 370000002 cycles: 440277340 heartbeat IPC: 0.478495 cumulative IPC: 0.484859 (Simulation time: 59 hr 18 min 5 sec) 
 Total Blocks : 262144 Invalid Blocks : 0
Heartbeat CPU 4 instructions: 370000002 cycles: 440429182 heartbeat IPC: 0.478536 cumulative IPC: 0.484651 (Simulation time: 59 hr 18 min 26 sec) 
 Total Blocks : 262144 Invalid Blocks : 0
Heartbeat CPU 0 instructions: 370000002 cycles: 440541750 heartbeat IPC: 0.478515 cumulative IPC: 0.484493 (Simulation time: 59 hr 18 min 58 sec) 
 Total Blocks : 262144 Invalid Blocks : 0
Heartbeat CPU 5 instructions: 370000002 cycles: 440541852 heartbeat IPC: 0.478511 cumulative IPC: 0.484495 (Simulation time: 59 hr 18 min 59 sec) 
 Total Blocks : 262144 Invalid Blocks : 0
Heartbeat CPU 7 instructions: 370000002 cycles: 440584994 heartbeat IPC: 0.478491 cumulative IPC: 0.484435 (Simulation time: 59 hr 19 min 4 sec) 
 Total Blocks : 262144 Invalid Blocks : 0
Heartbeat CPU 2 instructions: 370000002 cycles: 440653003 heartbeat IPC: 0.478513 cumulative IPC: 0.48434 (Simulation time: 59 hr 19 min 17 sec) 
 Total Blocks : 262144 Invalid Blocks : 0
Heartbeat CPU 6 instructions: 380000001 cycles: 461050871 heartbeat IPC: 0.47821 cumulative IPC: 0.484666 (Simulation time: 60 hr 14 min 45 sec) 
 Total Blocks : 262144 Invalid Blocks : 0
Heartbeat CPU 1 instructions: 380000001 cycles: 461103293 heartbeat IPC: 0.478252 cumulative IPC: 0.484596 (Simulation time: 60 hr 14 min 58 sec) 
 Total Blocks : 262144 Invalid Blocks : 0
Heartbeat CPU 3 instructions: 380000001 cycles: 461183587 heartbeat IPC: 0.478326 cumulative IPC: 0.484492 (Simulation time: 60 hr 15 min 10 sec) 
 Total Blocks : 262144 Invalid Blocks : 0
Heartbeat CPU 4 instructions: 380000001 cycles: 461334376 heartbeat IPC: 0.47835 cumulative IPC: 0.484296 (Simulation time: 60 hr 15 min 30 sec) 
 Total Blocks : 262144 Invalid Blocks : 0
Heartbeat CPU 0 instructions: 380000001 cycles: 461447264 heartbeat IPC: 0.478343 cumulative IPC: 0.484148 (Simulation time: 60 hr 15 min 45 sec) 
 Total Blocks : 262144 Invalid Blocks : 0
Heartbeat CPU 5 instructions: 380000001 cycles: 461447465 heartbeat IPC: 0.47834 cumulative IPC: 0.484149 (Simulation time: 60 hr 15 min 46 sec) 
 Total Blocks : 262144 Invalid Blocks : 0
Heartbeat CPU 7 instructions: 380000001 cycles: 461490644 heartbeat IPC: 0.47834 cumulative IPC: 0.484093 (Simulation time: 60 hr 15 min 52 sec) 
 Total Blocks : 262144 Invalid Blocks : 0
Heartbeat CPU 2 instructions: 380000001 cycles: 461559402 heartbeat IPC: 0.478322 cumulative IPC: 0.484002 (Simulation time: 60 hr 16 min 1 sec) 
 Total Blocks : 262144 Invalid Blocks : 0
Heartbeat CPU 6 instructions: 390000003 cycles: 486138523 heartbeat IPC: 0.398603 cumulative IPC: 0.47922 (Simulation time: 61 hr 45 min 55 sec) 
 Total Blocks : 262144 Invalid Blocks : 0
Heartbeat CPU 1 instructions: 390000003 cycles: 486422623 heartbeat IPC: 0.394955 cumulative IPC: 0.478876 (Simulation time: 61 hr 47 min 15 sec) 
 Total Blocks : 262144 Invalid Blocks : 0
Heartbeat CPU 3 instructions: 390000001 cycles: 486607117 heartbeat IPC: 0.393336 cumulative IPC: 0.478653 (Simulation time: 61 hr 48 min 21 sec) 
 Total Blocks : 262144 Invalid Blocks : 0
Heartbeat CPU 4 instructions: 390000003 cycles: 486750983 heartbeat IPC: 0.393444 cumulative IPC: 0.478481 (Simulation time: 61 hr 49 min 2 sec) 
 Total Blocks : 262144 Invalid Blocks : 0
Heartbeat CPU 0 instructions: 390000003 cycles: 486780859 heartbeat IPC: 0.394733 cumulative IPC: 0.478443 (Simulation time: 61 hr 49 min 15 sec) 
 Total Blocks : 262144 Invalid Blocks : 0
Heartbeat CPU 2 instructions: 390000001 cycles: 486823887 heartbeat IPC: 0.395813 cumulative IPC: 0.478392 (Simulation time: 61 hr 49 min 28 sec) 
 Total Blocks : 262144 Invalid Blocks : 0
Heartbeat CPU 5 instructions: 390000001 cycles: 486892074 heartbeat IPC: 0.393011 cumulative IPC: 0.478311 (Simulation time: 61 hr 49 min 47 sec) 
 Total Blocks : 262144 Invalid Blocks : 0
Heartbeat CPU 7 instructions: 390000003 cycles: 487093465 heartbeat IPC: 0.390582 cumulative IPC: 0.478069 (Simulation time: 61 hr 50 min 40 sec) 
 Total Blocks : 262144 Invalid Blocks : 0
Heartbeat CPU 0 instructions: 400000002 cycles: 513478335 heartbeat IPC: 0.374567 cumulative IPC: 0.4719 (Simulation time: 64 hr 29 min 10 sec) 
 Total Blocks : 262144 Invalid Blocks : 0
Finished CPU 0 instructions: 200000002 cycles: 423818014 cumulative IPC: 0.471901 (Simulation time: 64 hr 29 min 11 sec) 
Heartbeat CPU 6 instructions: 400000002 cycles: 513532325 heartbeat IPC: 0.365046 cumulative IPC: 0.471841 (Simulation time: 64 hr 29 min 26 sec) 
 Total Blocks : 262144 Invalid Blocks : 0
Finished CPU 6 instructions: 200000001 cycles: 423871211 cumulative IPC: 0.471841 (Simulation time: 64 hr 29 min 27 sec) 
Heartbeat CPU 1 instructions: 400000002 cycles: 513559143 heartbeat IPC: 0.368507 cumulative IPC: 0.47181 (Simulation time: 64 hr 29 min 51 sec) 
 Total Blocks : 262144 Invalid Blocks : 0
Finished CPU 1 instructions: 200000000 cycles: 423898792 cumulative IPC: 0.471811 (Simulation time: 64 hr 29 min 53 sec) 
Heartbeat CPU 3 instructions: 400000002 cycles: 513571107 heartbeat IPC: 0.370865 cumulative IPC: 0.471797 (Simulation time: 64 hr 29 min 55 sec) 
 Total Blocks : 262144 Invalid Blocks : 0
Finished CPU 3 instructions: 200000003 cycles: 423910566 cumulative IPC: 0.471798 (Simulation time: 64 hr 29 min 55 sec) 
Heartbeat CPU 4 instructions: 400000002 cycles: 513648700 heartbeat IPC: 0.371779 cumulative IPC: 0.471712 (Simulation time: 64 hr 30 min 18 sec) 
 Total Blocks : 262144 Invalid Blocks : 0
Finished CPU 4 instructions: 200000003 cycles: 423987651 cumulative IPC: 0.471712 (Simulation time: 64 hr 30 min 19 sec) 
Heartbeat CPU 2 instructions: 400000002 cycles: 513751618 heartbeat IPC: 0.371364 cumulative IPC: 0.471596 (Simulation time: 64 hr 30 min 52 sec) 
 Total Blocks : 262144 Invalid Blocks : 0
Finished CPU 2 instructions: 200000002 cycles: 424091293 cumulative IPC: 0.471597 (Simulation time: 64 hr 30 min 53 sec) 
Heartbeat CPU 5 instructions: 400000002 cycles: 513804970 heartbeat IPC: 0.371569 cumulative IPC: 0.471538 (Simulation time: 64 hr 31 min 3 sec) 
 Total Blocks : 262144 Invalid Blocks : 0
Finished CPU 5 instructions: 200000000 cycles: 424144002 cumulative IPC: 0.471538 (Simulation time: 64 hr 31 min 4 sec) 
Heartbeat CPU 7 instructions: 400000002 cycles: 513871074 heartbeat IPC: 0.373446 cumulative IPC: 0.471464 (Simulation time: 64 hr 31 min 24 sec) 
 Total Blocks : 262144 Invalid Blocks : 0
Finished CPU 7 instructions: 200000003 cycles: 424210026 cumulative IPC: 0.471465 (Simulation time: 64 hr 31 min 24 sec) 

CPU 0 Branch Prediction Accuracy: 99.9624% MPKI: 0.0320935 Average ROB Occupancy at Mispredict: 347.202

CPU 1 Branch Prediction Accuracy: 99.9624% MPKI: 0.0320842 Average ROB Occupancy at Mispredict: 347.164

CPU 2 Branch Prediction Accuracy: 99.9624% MPKI: 0.0320645 Average ROB Occupancy at Mispredict: 347.14

CPU 3 Branch Prediction Accuracy: 99.9624% MPKI: 0.0320907 Average ROB Occupancy at Mispredict: 347.162

CPU 4 Branch Prediction Accuracy: 99.9624% MPKI: 0.032081 Average ROB Occupancy at Mispredict: 347.173

CPU 5 Branch Prediction Accuracy: 99.9624% MPKI: 0.0320615 Average ROB Occupancy at Mispredict: 347.184

CPU 6 Branch Prediction Accuracy: 99.9624% MPKI: 0.0320956 Average ROB Occupancy at Mispredict: 347.164

CPU 7 Branch Prediction Accuracy: 99.9624% MPKI: 0.032055 Average ROB Occupancy at Mispredict: 347.171

ChampSim completed all CPUs

Total Simulation Statistics (not including warmup)

CPU 0 cumulative IPC: 0.47222 instructions: 200320491 cycles: 424210025
ITLB TOTAL     ACCESS: 68206294  HIT: 68206289  MISS:     5  HIT %:   100  MISS %: 7.3307e-06  AVERAGE MISS PENALTY: 109
ITLB LOAD      ACCESS: 68206294  HIT: 68206289  MISS:     5  HIT %:   100  MISS %: 7.3307e-06  AVERAGE MISS PENALTY: 109
ITLB RFO       ACCESS:     0  HIT:     0  MISS:     0  HIT %:     0  MISS %:     0  AVERAGE MISS PENALTY: 0
ITLB PREFETCH  ACCESS:     0  HIT:     0  MISS:     0  HIT %:     0  MISS %:     0  AVERAGE MISS PENALTY: 0
ITLB WRITEBACK ACCESS:     0  HIT:     0  MISS:     0  HIT %:     0  MISS %:     0  AVERAGE MISS PENALTY: 0

DTLB TOTAL     ACCESS: 58520179  HIT: 58395017  MISS: 125162  HIT %: 99.7861  MISS %: 0.213878  AVERAGE MISS PENALTY: 42.5124
DTLB LOAD      ACCESS: 40539960  HIT: 40433698  MISS: 106262  HIT %: 99.7379  MISS %: 0.262117  AVERAGE MISS PENALTY: 37.0973
DTLB RFO       ACCESS: 17980219  HIT: 17961319  MISS: 18900  HIT %: 99.8949  MISS %: 0.105116  AVERAGE MISS PENALTY: 72.9578
DTLB PREFETCH  ACCESS:     0  HIT:     0  MISS:     0  HIT %:     0  MISS %:     0  AVERAGE MISS PENALTY: 0
DTLB WRITEBACK ACCESS:     0  HIT:     0  MISS:     0  HIT %:     0  MISS %:     0  AVERAGE MISS PENALTY: 0

STLB TOTAL     ACCESS: 125167  HIT: 91074  MISS: 34093  HIT %: 72.762  MISS %: 27.238  AVERAGE MISS PENALTY: 100
STLB LOAD      ACCESS: 106267  HIT: 83124  MISS: 23143  HIT %: 78.2218  MISS %: 21.7782  AVERAGE MISS PENALTY: 100
STLB RFO       ACCESS: 18900  HIT:  7950  MISS: 10950  HIT %: 42.0635  MISS %: 57.9365  AVERAGE MISS PENALTY: 100
STLB PREFETCH  ACCESS:     0  HIT:     0  MISS:     0  HIT %:     0  MISS %:     0  AVERAGE MISS PENALTY: 0
STLB WRITEBACK ACCESS:     0  HIT:     0  MISS:     0  HIT %:     0  MISS %:     0  AVERAGE MISS PENALTY: 0

L1D TOTAL     ACCESS: 65630390  HIT: 64101027  MISS: 1529363  HIT %: 97.6697  MISS %: 2.33027  AVERAGE MISS PENALTY: 3.44638e+07
L1D LOAD      ACCESS: 37988392  HIT: 37767115  MISS: 221277  HIT %: 99.4175  MISS %: 0.582486  AVERAGE MISS PENALTY: 2.38186e+08
L1D RFO       ACCESS: 22843267  HIT: 22335208  MISS: 508059  HIT %: 97.7759  MISS %: 2.22411  AVERAGE MISS PENALTY: 4439.19
L1D PREFETCH  ACCESS: 4798731  HIT: 3998704  MISS: 800027  HIT %: 83.3284  MISS %: 16.6716  AVERAGE MISS PENALTY: 456.672
L1D WRITEBACK ACCESS:     0  HIT:     0  MISS:     0  HIT %:     0  MISS %:     0  AVERAGE MISS PENALTY: 0

L1I TOTAL     ACCESS: 75688197  HIT: 75688023  MISS:   174  HIT %: 99.9998  MISS %: 0.000229891  AVERAGE MISS PENALTY: 850.879
L1I LOAD      ACCESS: 75688197  HIT: 75688023  MISS:   174  HIT %: 99.9998  MISS %: 0.000229891  AVERAGE MISS PENALTY: 850.879
L1I RFO       ACCESS:     0  HIT:     0  MISS:     0  HIT %:     0  MISS %:     0  AVERAGE MISS PENALTY: 0
L1I PREFETCH  ACCESS:     0  HIT:     0  MISS:     0  HIT %:     0  MISS %:     0  AVERAGE MISS PENALTY: 0
L1I WRITEBACK ACCESS:     0  HIT:     0  MISS:     0  HIT %:     0  MISS %:     0  AVERAGE MISS PENALTY: 0

L2C TOTAL     ACCESS: 2690617  HIT: 1184800  MISS: 1505817  HIT %: 44.0345  MISS %: 55.9655  AVERAGE MISS PENALTY: 3.44669e+07
L2C LOAD      ACCESS: 217226  HIT: 21941  MISS: 195285  HIT %: 10.1005  MISS %: 89.8995  AVERAGE MISS PENALTY: 2.65763e+08
L2C RFO       ACCESS: 508054  HIT:   973  MISS: 507081  HIT %: 0.191515  MISS %: 99.8085  AVERAGE MISS PENALTY: 955.627
L2C PREFETCH  ACCESS: 1449425  HIT: 655152  MISS: 794273  HIT %: 45.2008  MISS %: 54.7992  AVERAGE MISS PENALTY: 1034.77
L2C WRITEBACK ACCESS: 515912  HIT: 506734  MISS:  9178  HIT %: 98.221  MISS %: 1.77899  AVERAGE MISS PENALTY: 0


LLC0 TOTAL     ACCESS: 250898  HIT: 44465  MISS: 206433  HIT %: 17.7223  MISS %: 82.2777  AVERAGE MISS PENALTY: 921.634
LLC0 LOAD      ACCESS: 16272  HIT:   322  MISS: 15950  HIT %: 1.97886  MISS %: 98.0211  AVERAGE MISS PENALTY: 980.414
LLC0 RFO       ACCESS: 63380  HIT:   119  MISS: 63261  HIT %: 0.187756  MISS %: 99.8122  AVERAGE MISS PENALTY: 852.047
LLC0 PREFETCH  ACCESS: 107069  HIT:  2071  MISS: 104998  HIT %: 1.93427  MISS %: 98.0657  AVERAGE MISS PENALTY: 1149.71
LLC0 WRITEBACK ACCESS: 64177  HIT: 41953  MISS: 22224  HIT %: 65.3708  MISS %: 34.6292  AVERAGE MISS PENALTY: 0

LLC1 TOTAL     ACCESS: 251162  HIT: 45920  MISS: 205242  HIT %: 18.283  MISS %: 81.717  AVERAGE MISS PENALTY: 936.958
LLC1 LOAD      ACCESS:  3282  HIT:    93  MISS:  3189  HIT %: 2.83364  MISS %: 97.1664  AVERAGE MISS PENALTY: 1094.97
LLC1 RFO       ACCESS: 63384  HIT:    91  MISS: 63293  HIT %: 0.143569  MISS %: 99.8564  AVERAGE MISS PENALTY: 864.898
LLC1 PREFETCH  ACCESS: 120307  HIT:  2178  MISS: 118129  HIT %: 1.81037  MISS %: 98.1896  AVERAGE MISS PENALTY: 1134.94
LLC1 WRITEBACK ACCESS: 64189  HIT: 43558  MISS: 20631  HIT %: 67.859  MISS %: 32.141  AVERAGE MISS PENALTY: 0

LLC2 TOTAL     ACCESS: 251285  HIT: 47966  MISS: 203319  HIT %: 19.0883  MISS %: 80.9117  AVERAGE MISS PENALTY: 974.735
LLC2 LOAD      ACCESS:  1945  HIT:    67  MISS:  1878  HIT %: 3.44473  MISS %: 96.5553  AVERAGE MISS PENALTY: 1161.74
LLC2 RFO       ACCESS: 63386  HIT:    78  MISS: 63308  HIT %: 0.123056  MISS %: 99.8769  AVERAGE MISS PENALTY: 914.539
LLC2 PREFETCH  ACCESS: 121748  HIT:  2219  MISS: 119529  HIT %: 1.82262  MISS %: 98.1774  AVERAGE MISS PENALTY: 1155.39
LLC2 WRITEBACK ACCESS: 64206  HIT: 45602  MISS: 18604  HIT %: 71.0245  MISS %: 28.9755  AVERAGE MISS PENALTY: 0

LLC3 TOTAL     ACCESS: 251335  HIT: 48874  MISS: 202461  HIT %: 19.4458  MISS %: 80.5542  AVERAGE MISS PENALTY: 987.496
LLC3 LOAD      ACCESS:  1892  HIT:    41  MISS:  1851  HIT %: 2.16702  MISS %: 97.833  AVERAGE MISS PENALTY: 1199.47
LLC3 RFO       ACCESS: 63392  HIT:   102  MISS: 63290  HIT %: 0.160904  MISS %: 99.8391  AVERAGE MISS PENALTY: 922.742
LLC3 PREFETCH  ACCESS: 121840  HIT:  2205  MISS: 119635  HIT %: 1.80975  MISS %: 98.1902  AVERAGE MISS PENALTY: 1164.45
LLC3 WRITEBACK ACCESS: 64211  HIT: 46526  MISS: 17685  HIT %: 72.458  MISS %: 27.542  AVERAGE MISS PENALTY: 0

LLC4 TOTAL     ACCESS: 251427  HIT: 48945  MISS: 202482  HIT %: 19.4669  MISS %: 80.5331  AVERAGE MISS PENALTY: 991.863
LLC4 LOAD      ACCESS:  1928  HIT:    44  MISS:  1884  HIT %: 2.28216  MISS %: 97.7178  AVERAGE MISS PENALTY: 1237.25
LLC4 RFO       ACCESS: 63385  HIT:    89  MISS: 63296  HIT %: 0.140412  MISS %: 99.8596  AVERAGE MISS PENALTY: 890.282
LLC4 PREFETCH  ACCESS: 121925  HIT:  2202  MISS: 119723  HIT %: 1.80603  MISS %: 98.194  AVERAGE MISS PENALTY: 1187.34
LLC4 WRITEBACK ACCESS: 64189  HIT: 46610  MISS: 17579  HIT %: 72.6137  MISS %: 27.3863  AVERAGE MISS PENALTY: 0

LLC5 TOTAL     ACCESS: 251396  HIT: 48914  MISS: 202482  HIT %: 19.457  MISS %: 80.543  AVERAGE MISS PENALTY: 979.346
LLC5 LOAD      ACCESS:  1895  HIT:    36  MISS:  1859  HIT %: 1.89974  MISS %: 98.1003  AVERAGE MISS PENALTY: 1217.58
LLC5 RFO       ACCESS: 63385  HIT:    86  MISS: 63299  HIT %: 0.135679  MISS %: 99.8643  AVERAGE MISS PENALTY: 888.592
LLC5 PREFETCH  ACCESS: 121928  HIT:  2203  MISS: 119725  HIT %: 1.8068  MISS %: 98.1932  AVERAGE MISS PENALTY: 1167.59
LLC5 WRITEBACK ACCESS: 64188  HIT: 46589  MISS: 17599  HIT %: 72.5821  MISS %: 27.4179  AVERAGE MISS PENALTY: 0

LLC6 TOTAL     ACCESS: 251365  HIT: 48521  MISS: 202844  HIT %: 19.303  MISS %: 80.697  AVERAGE MISS PENALTY: 1008.65
LLC6 LOAD      ACCESS:  2036  HIT:    38  MISS:  1998  HIT %: 1.8664  MISS %: 98.1336  AVERAGE MISS PENALTY: 1232.76
LLC6 RFO       ACCESS: 63386  HIT:    85  MISS: 63301  HIT %: 0.134099  MISS %: 99.8659  AVERAGE MISS PENALTY: 955.988
LLC6 PREFETCH  ACCESS: 121749  HIT:  2155  MISS: 119594  HIT %: 1.77004  MISS %: 98.23  AVERAGE MISS PENALTY: 1184.18
LLC6 WRITEBACK ACCESS: 64194  HIT: 46243  MISS: 17951  HIT %: 72.0363  MISS %: 27.9637  AVERAGE MISS PENALTY: 0

LLC7 TOTAL     ACCESS: 251313  HIT: 47643  MISS: 203670  HIT %: 18.9576  MISS %: 81.0424  AVERAGE MISS PENALTY: 996.263
LLC7 LOAD      ACCESS:  1978  HIT:    38  MISS:  1940  HIT %: 1.92113  MISS %: 98.0789  AVERAGE MISS PENALTY: 1212.71
LLC7 RFO       ACCESS: 63383  HIT:    91  MISS: 63292  HIT %: 0.143572  MISS %: 99.8564  AVERAGE MISS PENALTY: 947.085
LLC7 PREFETCH  ACCESS: 121764  HIT:  2191  MISS: 119573  HIT %: 1.79938  MISS %: 98.2006  AVERAGE MISS PENALTY: 1175.96
LLC7 WRITEBACK ACCESS: 64188  HIT: 45323  MISS: 18865  HIT %: 70.6098  MISS %: 29.3902  AVERAGE MISS PENALTY: 0

Total Rob stall cycles : 	390984605
Total Load Rob Stall cycles : 	179837097
Average Rob Stall cycles : 	 6
Average Load Rob Stall cycles : 	 17

CPU 1 cumulative IPC: 0.472062 instructions: 200253565 cycles: 424210025
ITLB TOTAL     ACCESS: 68187116  HIT: 68187111  MISS:     5  HIT %:   100  MISS %: 7.33276e-06  AVERAGE MISS PENALTY: 109
ITLB LOAD      ACCESS: 68187116  HIT: 68187111  MISS:     5  HIT %:   100  MISS %: 7.33276e-06  AVERAGE MISS PENALTY: 109
ITLB RFO       ACCESS:     0  HIT:     0  MISS:     0  HIT %:     0  MISS %:     0  AVERAGE MISS PENALTY: 0
ITLB PREFETCH  ACCESS:     0  HIT:     0  MISS:     0  HIT %:     0  MISS %:     0  AVERAGE MISS PENALTY: 0
ITLB WRITEBACK ACCESS:     0  HIT:     0  MISS:     0  HIT %:     0  MISS %:     0  AVERAGE MISS PENALTY: 0

DTLB TOTAL     ACCESS: 58502310  HIT: 58379172  MISS: 123138  HIT %: 99.7895  MISS %: 0.210484  AVERAGE MISS PENALTY: 43.0525
DTLB LOAD      ACCESS: 40526694  HIT: 40422288  MISS: 104406  HIT %: 99.7424  MISS %: 0.257623  AVERAGE MISS PENALTY: 37.56
DTLB RFO       ACCESS: 17975616  HIT: 17956884  MISS: 18732  HIT %: 99.8958  MISS %: 0.104208  AVERAGE MISS PENALTY: 73.6657
DTLB PREFETCH  ACCESS:     0  HIT:     0  MISS:     0  HIT %:     0  MISS %:     0  AVERAGE MISS PENALTY: 0
DTLB WRITEBACK ACCESS:     0  HIT:     0  MISS:     0  HIT %:     0  MISS %:     0  AVERAGE MISS PENALTY: 0

STLB TOTAL     ACCESS: 123143  HIT: 89051  MISS: 34092  HIT %: 72.3151  MISS %: 27.6849  AVERAGE MISS PENALTY: 100
STLB LOAD      ACCESS: 104411  HIT: 81269  MISS: 23142  HIT %: 77.8357  MISS %: 22.1643  AVERAGE MISS PENALTY: 100
STLB RFO       ACCESS: 18732  HIT:  7782  MISS: 10950  HIT %: 41.5439  MISS %: 58.4561  AVERAGE MISS PENALTY: 100
STLB PREFETCH  ACCESS:     0  HIT:     0  MISS:     0  HIT %:     0  MISS %:     0  AVERAGE MISS PENALTY: 0
STLB WRITEBACK ACCESS:     0  HIT:     0  MISS:     0  HIT %:     0  MISS %:     0  AVERAGE MISS PENALTY: 0

L1D TOTAL     ACCESS: 65670686  HIT: 64143096  MISS: 1527590  HIT %: 97.6739  MISS %: 2.32614  AVERAGE MISS PENALTY: 3.44915e+07
L1D LOAD      ACCESS: 37971803  HIT: 37751970  MISS: 219833  HIT %: 99.4211  MISS %: 0.578937  AVERAGE MISS PENALTY: 2.39669e+08
L1D RFO       ACCESS: 22844627  HIT: 22336663  MISS: 507964  HIT %: 97.7764  MISS %: 2.22356  AVERAGE MISS PENALTY: 2938.6
L1D PREFETCH  ACCESS: 4854256  HIT: 4054463  MISS: 799793  HIT %: 83.5239  MISS %: 16.4761  AVERAGE MISS PENALTY: 453.156
L1D WRITEBACK ACCESS:     0  HIT:     0  MISS:     0  HIT %:     0  MISS %:     0  AVERAGE MISS PENALTY: 0

L1I TOTAL     ACCESS: 75665624  HIT: 75665450  MISS:   174  HIT %: 99.9998  MISS %: 0.000229959  AVERAGE MISS PENALTY: 845.282
L1I LOAD      ACCESS: 75665624  HIT: 75665450  MISS:   174  HIT %: 99.9998  MISS %: 0.000229959  AVERAGE MISS PENALTY: 845.282
L1I RFO       ACCESS:     0  HIT:     0  MISS:     0  HIT %:     0  MISS %:     0  AVERAGE MISS PENALTY: 0
L1I PREFETCH  ACCESS:     0  HIT:     0  MISS:     0  HIT %:     0  MISS %:     0  AVERAGE MISS PENALTY: 0
L1I WRITEBACK ACCESS:     0  HIT:     0  MISS:     0  HIT %:     0  MISS %:     0  AVERAGE MISS PENALTY: 0

L2C TOTAL     ACCESS: 2691337  HIT: 1178473  MISS: 1512864  HIT %: 43.7876  MISS %: 56.2124  AVERAGE MISS PENALTY: 3.42694e+07
L2C LOAD      ACCESS: 215793  HIT: 20692  MISS: 195101  HIT %: 9.58882  MISS %: 90.4112  AVERAGE MISS PENALTY: 2.65728e+08
L2C RFO       ACCESS: 507961  HIT:   947  MISS: 507014  HIT %: 0.186432  MISS %: 99.8136  AVERAGE MISS PENALTY: 947.442
L2C PREFETCH  ACCESS: 1451742  HIT: 657761  MISS: 793981  HIT %: 45.3084  MISS %: 54.6916  AVERAGE MISS PENALTY: 1030.23
L2C WRITEBACK ACCESS: 515841  HIT: 499073  MISS: 16768  HIT %: 96.7494  MISS %: 3.25061  AVERAGE MISS PENALTY: 0


LLC0 TOTAL     ACCESS: 250878  HIT: 44890  MISS: 205988  HIT %: 17.8932  MISS %: 82.1068  AVERAGE MISS PENALTY: 918.871
LLC0 LOAD      ACCESS: 16277  HIT:   323  MISS: 15954  HIT %: 1.9844  MISS %: 98.0156  AVERAGE MISS PENALTY: 966.863
LLC0 RFO       ACCESS: 63371  HIT:   105  MISS: 63266  HIT %: 0.165691  MISS %: 99.8343  AVERAGE MISS PENALTY: 846.701
LLC0 PREFETCH  ACCESS: 107010  HIT:  2273  MISS: 104737  HIT %: 2.1241  MISS %: 97.8759  AVERAGE MISS PENALTY: 1148.44
LLC0 WRITEBACK ACCESS: 64220  HIT: 42189  MISS: 22031  HIT %: 65.6945  MISS %: 34.3055  AVERAGE MISS PENALTY: 0

LLC1 TOTAL     ACCESS: 251164  HIT: 46892  MISS: 204272  HIT %: 18.6699  MISS %: 81.3301  AVERAGE MISS PENALTY: 939.38
LLC1 LOAD      ACCESS:  3291  HIT:    92  MISS:  3199  HIT %: 2.7955  MISS %: 97.2045  AVERAGE MISS PENALTY: 1092.06
LLC1 RFO       ACCESS: 63381  HIT:   101  MISS: 63280  HIT %: 0.159354  MISS %: 99.8406  AVERAGE MISS PENALTY: 859.636
LLC1 PREFETCH  ACCESS: 120262  HIT:  2457  MISS: 117805  HIT %: 2.04304  MISS %: 97.957  AVERAGE MISS PENALTY: 1137.45
LLC1 WRITEBACK ACCESS: 64230  HIT: 44242  MISS: 19988  HIT %: 68.8806  MISS %: 31.1194  AVERAGE MISS PENALTY: 0

LLC2 TOTAL     ACCESS: 251277  HIT: 49379  MISS: 201898  HIT %: 19.6512  MISS %: 80.3488  AVERAGE MISS PENALTY: 975.093
LLC2 LOAD      ACCESS:  1961  HIT:    69  MISS:  1892  HIT %: 3.51861  MISS %: 96.4814  AVERAGE MISS PENALTY: 1131.14
LLC2 RFO       ACCESS: 63379  HIT:    93  MISS: 63286  HIT %: 0.146736  MISS %: 99.8533  AVERAGE MISS PENALTY: 903.583
LLC2 PREFETCH  ACCESS: 121694  HIT:  2540  MISS: 119154  HIT %: 2.0872  MISS %: 97.9128  AVERAGE MISS PENALTY: 1154.35
LLC2 WRITEBACK ACCESS: 64243  HIT: 46677  MISS: 17566  HIT %: 72.6569  MISS %: 27.3431  AVERAGE MISS PENALTY: 0

LLC3 TOTAL     ACCESS: 251305  HIT: 50398  MISS: 200907  HIT %: 20.0545  MISS %: 79.9455  AVERAGE MISS PENALTY: 991.559
LLC3 LOAD      ACCESS:  1875  HIT:    53  MISS:  1822  HIT %: 2.82667  MISS %: 97.1733  AVERAGE MISS PENALTY: 1159.85
[...]
LLC1 AVERAGE MISS LATENCY: 939.906 cycles
LLC2 TOTAL     ACCESS: 251146  HIT: 49117  MISS: 202029  HIT %: 19.5572  MISS %: 80.4428  AVERAGE MISS PENALTY: 976.153
LLC2 LOAD      ACCESS:  1943  HIT:    70  MISS:  1873  HIT %: 3.60268  MISS %: 96.3973  AVERAGE MISS PENALTY: 1139.05
LLC2 RFO       ACCESS: 63368  HIT:    77  MISS: 63291  HIT %: 0.121512  MISS %: 99.8785  AVERAGE MISS PENALTY: 901.4
LLC2 PREFETCH  ACCESS: 121642  HIT:  2203  MISS: 119439  HIT %: 1.81105  MISS %: 98.1889  AVERAGE MISS PENALTY: 1155.63
LLC2 WRITEBACK ACCESS: 64193  HIT: 46767  MISS: 17426  HIT %: 72.8537  MISS %: 27.1463  AVERAGE MISS PENALTY: 0
LLC2 PREFETCH  REQUESTED:     0  ISSUED:     0  USEFUL:   485  USELESS: 954562
 USEFUL LOAD PREFETCHES:        485 PREFETCH ISSUED TO LOWER LEVEL:   67732827  ACCURACY: 0.000716049
 TIMELY PREFETCHES:        485 LATE PREFETCHES: 0 DROPPED PREFETCHES: 0
LLC2 AVERAGE MISS LATENCY: 976.153 cycles
LLC3 TOTAL     ACCESS: 251133  HIT: 49860  MISS: 201273  HIT %: 19.854  MISS %: 80.146  AVERAGE MISS PENALTY: 987.354
LLC3 LOAD      ACCESS:  1881  HIT:    50  MISS:  1831  HIT %: 2.65816  MISS %: 97.3418  AVERAGE MISS PENALTY: 1197.43
LLC3 RFO       ACCESS: 63373  HIT:    79  MISS: 63294  HIT %: 0.124659  MISS %: 99.8753  AVERAGE MISS PENALTY: 905.903
LLC3 PREFETCH  ACCESS: 121680  HIT:  2125  MISS: 119555  HIT %: 1.74638  MISS %: 98.2536  AVERAGE MISS PENALTY: 1164.29
LLC3 WRITEBACK ACCESS: 64199  HIT: 47606  MISS: 16593  HIT %: 74.1538  MISS %: 25.8462  AVERAGE MISS PENALTY: 0
LLC3 PREFETCH  REQUESTED:     0  ISSUED:     0  USEFUL:   251  USELESS: 955376
 USEFUL LOAD PREFETCHES:        251 PREFETCH ISSUED TO LOWER LEVEL:   67258044  ACCURACY: 0.00037319
 TIMELY PREFETCHES:        251 LATE PREFETCHES: 0 DROPPED PREFETCHES: 0
LLC3 AVERAGE MISS LATENCY: 987.354 cycles
LLC4 TOTAL     ACCESS: 251272  HIT: 50313  MISS: 200959  HIT %: 20.0233  MISS %: 79.9767  AVERAGE MISS PENALTY: 1001.83
LLC4 LOAD      ACCESS:  1916  HIT:    54  MISS:  1862  HIT %: 2.81837  MISS %: 97.1816  AVERAGE MISS PENALTY: 1244.07
LLC4 RFO       ACCESS: 63368  HIT:    76  MISS: 63292  HIT %: 0.119934  MISS %: 99.8801  AVERAGE MISS PENALTY: 887.31
LLC4 PREFETCH  ACCESS: 121806  HIT:  2188  MISS: 119618  HIT %: 1.7963  MISS %: 98.2037  AVERAGE MISS PENALTY: 1194.22
LLC4 WRITEBACK ACCESS: 64182  HIT: 47995  MISS: 16187  HIT %: 74.7795  MISS %: 25.2205  AVERAGE MISS PENALTY: 0
LLC4 PREFETCH  REQUESTED:     0  ISSUED:     0  USEFUL:   246  USELESS: 956021
 USEFUL LOAD PREFETCHES:        246 PREFETCH ISSUED TO LOWER LEVEL:   80174401  ACCURACY: 0.000306831
 TIMELY PREFETCHES:        246 LATE PREFETCHES: 0 DROPPED PREFETCHES: 0
LLC4 AVERAGE MISS LATENCY: 1001.83 cycles
LLC5 TOTAL     ACCESS: 251256  HIT: 50033  MISS: 201223  HIT %: 19.9132  MISS %: 80.0868  AVERAGE MISS PENALTY: 985.727
LLC5 LOAD      ACCESS:  1908  HIT:    51  MISS:  1857  HIT %: 2.67296  MISS %: 97.327  AVERAGE MISS PENALTY: 1185.08
LLC5 RFO       ACCESS: 63371  HIT:    79  MISS: 63292  HIT %: 0.124663  MISS %: 99.8753  AVERAGE MISS PENALTY: 880.267
LLC5 PREFETCH  ACCESS: 121793  HIT:  2163  MISS: 119630  HIT %: 1.77596  MISS %: 98.224  AVERAGE MISS PENALTY: 1173.92
LLC5 WRITEBACK ACCESS: 64184  HIT: 47740  MISS: 16444  HIT %: 74.3799  MISS %: 25.6201  AVERAGE MISS PENALTY: 0
LLC5 PREFETCH  REQUESTED:     0  ISSUED:     0  USEFUL:   254  USELESS: 955851
 USEFUL LOAD PREFETCHES:        254 PREFETCH ISSUED TO LOWER LEVEL:   74886022  ACCURACY: 0.000339182
 TIMELY PREFETCHES:        254 LATE PREFETCHES: 0 DROPPED PREFETCHES: 0
LLC5 AVERAGE MISS LATENCY: 985.727 cycles
LLC6 TOTAL     ACCESS: 251235  HIT: 49285  MISS: 201950  HIT %: 19.6171  MISS %: 80.3829  AVERAGE MISS PENALTY: 1011.05
LLC6 LOAD      ACCESS:  2110  HIT:    42  MISS:  2068  HIT %: 1.99052  MISS %: 98.0095  AVERAGE MISS PENALTY: 1300.22
LLC6 RFO       ACCESS: 63369  HIT:    73  MISS: 63296  HIT %: 0.115198  MISS %: 99.8848  AVERAGE MISS PENALTY: 940.667
LLC6 PREFETCH  ACCESS: 121568  HIT:  2193  MISS: 119375  HIT %: 1.80393  MISS %: 98.1961  AVERAGE MISS PENALTY: 1189.13
LLC6 WRITEBACK ACCESS: 64188  HIT: 46977  MISS: 17211  HIT %: 73.1866  MISS %: 26.8134  AVERAGE MISS PENALTY: 0
LLC6 PREFETCH  REQUESTED:     0  ISSUED:     0  USEFUL:   234  USELESS: 954153
 USEFUL LOAD PREFETCHES:        234 PREFETCH ISSUED TO LOWER LEVEL:   98395944  ACCURACY: 0.000237815
 TIMELY PREFETCHES:        234 LATE PREFETCHES: 0 DROPPED PREFETCHES: 0
LLC6 AVERAGE MISS LATENCY: 1011.05 cycles
LLC7 TOTAL     ACCESS: 251213  HIT: 48675  MISS: 202538  HIT %: 19.376  MISS %: 80.624  AVERAGE MISS PENALTY: 995.971
LLC7 LOAD      ACCESS:  2008  HIT:    37  MISS:  1971  HIT %: 1.84263  MISS %: 98.1574  AVERAGE MISS PENALTY: 1253.1
LLC7 RFO       ACCESS: 63366  HIT:    75  MISS: 63291  HIT %: 0.11836  MISS %: 99.8816  AVERAGE MISS PENALTY: 935.888
LLC7 PREFETCH  ACCESS: 121651  HIT:  2302  MISS: 119349  HIT %: 1.8923  MISS %: 98.1077  AVERAGE MISS PENALTY: 1173.19
LLC7 WRITEBACK ACCESS: 64188  HIT: 46261  MISS: 17927  HIT %: 72.0711  MISS %: 27.9289  AVERAGE MISS PENALTY: 0
LLC7 PREFETCH  REQUESTED:     0  ISSUED:     0  USEFUL:   288  USELESS: 953886
 USEFUL LOAD PREFETCHES:        288 PREFETCH ISSUED TO LOWER LEVEL:   94966011  ACCURACY: 0.000303266
 TIMELY PREFETCHES:        288 LATE PREFETCHES: 0 DROPPED PREFETCHES: 0
LLC7 AVERAGE MISS LATENCY: 995.971 cycles
ROI Average ROB Stall Cycles:	6.85715
ROI Total ROB Stalls Cycles:	390699872
ROI TOTAL ROB counter      :	56977033
ROI Average Load ROB Stall Cycles:	17.1006
ROI Total Load ROB Stalls Cycle  :	179839452
ROI Total Load ROB stalls Counter:	10516550
Major fault: 0 Minor fault: 27201

CPU 7 cumulative IPC: 0.471465 instructions: 200000003 cycles: 424210026
ITLB TOTAL     ACCESS: 68114646  HIT: 68114641  MISS:     5  HIT %:   100  MISS %: 7.34057e-06  AVERAGE MISS PENALTY: 109
ITLB LOAD      ACCESS: 68114646  HIT: 68114641  MISS:     5  HIT %:   100  MISS %: 7.34057e-06  AVERAGE MISS PENALTY: 109
ITLB RFO       ACCESS:     0  HIT:     0  MISS:     0  HIT %:     0  MISS %:     0  AVERAGE MISS PENALTY: 0
ITLB PREFETCH  ACCESS:     0  HIT:     0  MISS:     0  HIT %:     0  MISS %:     0  AVERAGE MISS PENALTY: 0
ITLB WRITEBACK ACCESS:     0  HIT:     0  MISS:     0  HIT %:     0  MISS %:     0  AVERAGE MISS PENALTY: 0
ITLB PREFETCH  REQUESTED:     0  ISSUED:     0  USEFUL:     0  USELESS:     0
 USEFUL LOAD PREFETCHES:          0 PREFETCH ISSUED TO LOWER LEVEL:          0  ACCURACY: -nan
 TIMELY PREFETCHES:          0 LATE PREFETCHES: 0 DROPPED PREFETCHES: 0
ITLB AVERAGE MISS LATENCY: 109 cycles
DTLB TOTAL     ACCESS: 58441497  HIT: 58325902  MISS: 115595  HIT %: 99.8022  MISS %: 0.197796  AVERAGE MISS PENALTY: 45.2457
DTLB LOAD      ACCESS: 40478646  HIT: 40381166  MISS: 97480  HIT %: 99.7592  MISS %: 0.240818  AVERAGE MISS PENALTY: 39.5996
DTLB RFO       ACCESS: 17962851  HIT: 17944736  MISS: 18115  HIT %: 99.8992  MISS %: 0.100847  AVERAGE MISS PENALTY: 75.6285
DTLB PREFETCH  ACCESS:     0  HIT:     0  MISS:     0  HIT %:     0  MISS %:     0  AVERAGE MISS PENALTY: 0
DTLB WRITEBACK ACCESS:     0  HIT:     0  MISS:     0  HIT %:     0  MISS %:     0  AVERAGE MISS PENALTY: 0
DTLB PREFETCH  REQUESTED:     0  ISSUED:     0  USEFUL:     0  USELESS:     0
 USEFUL LOAD PREFETCHES:          0 PREFETCH ISSUED TO LOWER LEVEL:          0  ACCURACY: -nan
 TIMELY PREFETCHES:          0 LATE PREFETCHES: 0 DROPPED PREFETCHES: 0
DTLB AVERAGE MISS LATENCY: 45.2457 cycles
STLB TOTAL     ACCESS: 115600  HIT: 81512  MISS: 34088  HIT %: 70.5121  MISS %: 29.4879  AVERAGE MISS PENALTY: 100
STLB LOAD      ACCESS: 97485  HIT: 74347  MISS: 23138  HIT %: 76.2651  MISS %: 23.7349  AVERAGE MISS PENALTY: 100
STLB RFO       ACCESS: 18115  HIT:  7165  MISS: 10950  HIT %: 39.5529  MISS %: 60.4471  AVERAGE MISS PENALTY: 100
STLB PREFETCH  ACCESS:     0  HIT:     0  MISS:     0  HIT %:     0  MISS %:     0  AVERAGE MISS PENALTY: 0
STLB WRITEBACK ACCESS:     0  HIT:     0  MISS:     0  HIT %:     0  MISS %:     0  AVERAGE MISS PENALTY: 0
STLB PREFETCH  REQUESTED:     0  ISSUED:     0  USEFUL:     0  USELESS:     0
 USEFUL LOAD PREFETCHES:          0 PREFETCH ISSUED TO LOWER LEVEL:          0  ACCURACY: -nan
 TIMELY PREFETCHES:          0 LATE PREFETCHES: 0 DROPPED PREFETCHES: 0
STLB AVERAGE MISS LATENCY: 100 cycles
L1D TOTAL     ACCESS: 65565023  HIT: 64039741  MISS: 1525282  HIT %: 97.6736  MISS %: 2.32637  AVERAGE MISS PENALTY: 3.44713e+07
L1D LOAD      ACCESS: 37919274  HIT: 37700624  MISS: 218650  HIT %: 99.4234  MISS %: 0.57662  AVERAGE MISS PENALTY: 2.40459e+08
L1D RFO       ACCESS: 22820382  HIT: 22312512  MISS: 507870  HIT %: 97.7745  MISS %: 2.22551  AVERAGE MISS PENALTY: 3238.14
L1D PREFETCH  ACCESS: 4825367  HIT: 4026605  MISS: 798762  HIT %: 83.4466  MISS %: 16.5534  AVERAGE MISS PENALTY: 459.108
L1D WRITEBACK ACCESS:     0  HIT:     0  MISS:     0  HIT %:     0  MISS %:     0  AVERAGE MISS PENALTY: 0
L1D PREFETCH  REQUESTED: 5566971  ISSUED: 5512931  USEFUL: 755262  USELESS: 43245
 USEFUL LOAD PREFETCHES:     755262 PREFETCH ISSUED TO LOWER LEVEL:   25460643  ACCURACY: 2.96639
 TIMELY PREFETCHES:     755262 LATE PREFETCHES: 187373 DROPPED PREFETCHES: 54040
L1D AVERAGE MISS LATENCY: 1432.59 cycles
L1I TOTAL     ACCESS: 75578918  HIT: 75578744  MISS:   174  HIT %: 99.9998  MISS %: 0.000230223  AVERAGE MISS PENALTY: 706.833
L1I LOAD      ACCESS: 75578918  HIT: 75578744  MISS:   174  HIT %: 99.9998  MISS %: 0.000230223  AVERAGE MISS PENALTY: 706.833
L1I RFO       ACCESS:     0  HIT:     0  MISS:     0  HIT %:     0  MISS %:     0  AVERAGE MISS PENALTY: 0
L1I PREFETCH  ACCESS:     0  HIT:     0  MISS:     0  HIT %:     0  MISS %:     0  AVERAGE MISS PENALTY: 0
L1I WRITEBACK ACCESS:     0  HIT:     0  MISS:     0  HIT %:     0  MISS %:     0  AVERAGE MISS PENALTY: 0
L1I PREFETCH  REQUESTED:     0  ISSUED:     0  USEFUL:     0  USELESS:     0
 USEFUL LOAD PREFETCHES:          0 PREFETCH ISSUED TO LOWER LEVEL:          0  ACCURACY: -nan
 TIMELY PREFETCHES:          0 LATE PREFETCHES: 0 DROPPED PREFETCHES: 0
L1I AVERAGE MISS LATENCY: 706.833 cycles
L2C TOTAL     ACCESS: 2687477  HIT: 1172938  MISS: 1514539  HIT %: 43.6446  MISS %: 56.3554  AVERAGE MISS PENALTY: 3.41616e+07
L2C LOAD      ACCESS: 214534  HIT: 19431  MISS: 195103  HIT %: 9.05731  MISS %: 90.9427  AVERAGE MISS PENALTY: 2.65182e+08
L2C RFO       ACCESS: 507867  HIT:   921  MISS: 506946  HIT %: 0.181347  MISS %: 99.8187  AVERAGE MISS PENALTY: 946.535
L2C PREFETCH  ACCESS: 1449330  HIT: 655562  MISS: 793768  HIT %: 45.2321  MISS %: 54.7679  AVERAGE MISS PENALTY: 1040.54
L2C WRITEBACK ACCESS: 515746  HIT: 497024  MISS: 18722  HIT %: 96.3699  MISS %: 3.63008  AVERAGE MISS PENALTY: 0
L2C PREFETCH  REQUESTED: 1513174  ISSUED: 1513002  USEFUL:  9470  USELESS: 788440
 USEFUL LOAD PREFETCHES:       9470 PREFETCH ISSUED TO LOWER LEVEL:    1564130  ACCURACY: 0.605448
 TIMELY PREFETCHES:       9470 LATE PREFETCHES: 172350 DROPPED PREFETCHES: 172
L2C AVERAGE MISS LATENCY: 975.253 cycles
LLC0 TOTAL     ACCESS: 250753  HIT: 45318  MISS: 205435  HIT %: 18.0728  MISS %: 81.9272  AVERAGE MISS PENALTY: 928.3
LLC0 LOAD      ACCESS: 16272  HIT:   366  MISS: 15906  HIT %: 2.24926  MISS %: 97.7507  AVERAGE MISS PENALTY: 987.362
LLC0 RFO       ACCESS: 63359  HIT:   117  MISS: 63242  HIT %: 0.184662  MISS %: 99.8153  AVERAGE MISS PENALTY: 844.124
LLC0 PREFETCH  ACCESS: 107002  HIT:  2407  MISS: 104595  HIT %: 2.24949  MISS %: 97.7505  AVERAGE MISS PENALTY: 1162.73
LLC0 WRITEBACK ACCESS: 64120  HIT: 42428  MISS: 21692  HIT %: 66.1697  MISS %: 33.8303  AVERAGE MISS PENALTY: 0
LLC0 PREFETCH  REQUESTED:     0  ISSUED:     0  USEFUL:   463  USELESS: 838374
 USEFUL LOAD PREFETCHES:        463 PREFETCH ISSUED TO LOWER LEVEL:   55151910  ACCURACY: 0.000839499
 TIMELY PREFETCHES:        463 LATE PREFETCHES: 0 DROPPED PREFETCHES: 0
LLC0 AVERAGE MISS LATENCY: 928.3 cycles
Deadblocks : 126720 Deadblock percentage : 796.68

LLC1 TOTAL     ACCESS: 251006  HIT: 47202  MISS: 203804  HIT %: 18.8051  MISS %: 81.1949  AVERAGE MISS PENALTY: 946.065
LLC1 LOAD      ACCESS:  3227  HIT:    98  MISS:  3129  HIT %: 3.03688  MISS %: 96.9631  AVERAGE MISS PENALTY: 1061.06
LLC1 RFO       ACCESS: 63365  HIT:    94  MISS: 63271  HIT %: 0.148347  MISS %: 99.8517  AVERAGE MISS PENALTY: 854.914
LLC1 PREFETCH  ACCESS: 120292  HIT:  2687  MISS: 117605  HIT %: 2.23373  MISS %: 97.7663  AVERAGE MISS PENALTY: 1151.32
LLC1 WRITEBACK ACCESS: 64122  HIT: 44323  MISS: 19799  HIT %: 69.1229  MISS %: 30.8771  AVERAGE MISS PENALTY: 0
LLC1 PREFETCH  REQUESTED:     0  ISSUED:     0  USEFUL:   522  USELESS: 943274
 USEFUL LOAD PREFETCHES:        522 PREFETCH ISSUED TO LOWER LEVEL:   59832101  ACCURACY: 0.000872441
 TIMELY PREFETCHES:        522 LATE PREFETCHES: 0 DROPPED PREFETCHES: 0
LLC1 AVERAGE MISS LATENCY: 946.065 cycles
LLC2 TOTAL     ACCESS: 251143  HIT: 49604  MISS: 201539  HIT %: 19.7513  MISS %: 80.2487  AVERAGE MISS PENALTY: 984.541
LLC2 LOAD      ACCESS:  1929  HIT:    83  MISS:  1846  HIT %: 4.30275  MISS %: 95.6973  AVERAGE MISS PENALTY: 1088.66
LLC2 RFO       ACCESS: 63369  HIT:    97  MISS: 63272  HIT %: 0.153072  MISS %: 99.8469  AVERAGE MISS PENALTY: 911.719
LLC2 PREFETCH  ACCESS: 121704  HIT:  2714  MISS: 118990  HIT %:  2.23  MISS %: 97.77  AVERAGE MISS PENALTY: 1165.88
LLC2 WRITEBACK ACCESS: 64141  HIT: 46710  MISS: 17431  HIT %: 72.8239  MISS %: 27.1761  AVERAGE MISS PENALTY: 0
LLC2 PREFETCH  REQUESTED:     0  ISSUED:     0  USEFUL:   485  USELESS: 954562
 USEFUL LOAD PREFETCHES:        485 PREFETCH ISSUED TO LOWER LEVEL:   67732827  ACCURACY: 0.000716049
 TIMELY PREFETCHES:        485 LATE PREFETCHES: 0 DROPPED PREFETCHES: 0
LLC2 AVERAGE MISS LATENCY: 984.541 cycles
LLC3 TOTAL     ACCESS: 251162  HIT: 50293  MISS: 200869  HIT %: 20.0241  MISS %: 79.9759  AVERAGE MISS PENALTY: 994.447
LLC3 LOAD      ACCESS:  1878  HIT:    57  MISS:  1821  HIT %: 3.03514  MISS %: 96.9649  AVERAGE MISS PENALTY: 1142.83
LLC3 RFO       ACCESS: 63376  HIT:    86  MISS: 63290  HIT %: 0.135698  MISS %: 99.8643  AVERAGE MISS PENALTY: 911.324
LLC3 PREFETCH  ACCESS: 121764  HIT:  2688  MISS: 119076  HIT %: 2.20755  MISS %: 97.7925  AVERAGE MISS PENALTY: 1175.68
LLC3 WRITEBACK ACCESS: 64144  HIT: 47462  MISS: 16682  HIT %: 73.9929  MISS %: 26.0071  AVERAGE MISS PENALTY: 0
LLC3 PREFETCH  REQUESTED:     0  ISSUED:     0  USEFUL:   251  USELESS: 955376
 USEFUL LOAD PREFETCHES:        251 PREFETCH ISSUED TO LOWER LEVEL:   67258044  ACCURACY: 0.00037319
 TIMELY PREFETCHES:        251 LATE PREFETCHES: 0 DROPPED PREFETCHES: 0
LLC3 AVERAGE MISS LATENCY: 994.447 cycles
LLC4 TOTAL     ACCESS: 251233  HIT: 50617  MISS: 200616  HIT %: 20.1474  MISS %: 79.8526  AVERAGE MISS PENALTY: 1005.39
LLC4 LOAD      ACCESS:  1913  HIT:    61  MISS:  1852  HIT %: 3.18871  MISS %: 96.8113  AVERAGE MISS PENALTY: 1210.39
LLC4 RFO       ACCESS: 63369  HIT:    93  MISS: 63276  HIT %: 0.146759  MISS %: 99.8532  AVERAGE MISS PENALTY: 884.317
LLC4 PREFETCH  ACCESS: 121830  HIT:  2688  MISS: 119142  HIT %: 2.20635  MISS %: 97.7936  AVERAGE MISS PENALTY: 1204.43
LLC4 WRITEBACK ACCESS: 64121  HIT: 47775  MISS: 16346  HIT %: 74.5076  MISS %: 25.4924  AVERAGE MISS PENALTY: 0
LLC4 PREFETCH  REQUESTED:     0  ISSUED:     0  USEFUL:   246  USELESS: 956021
 USEFUL LOAD PREFETCHES:        246 PREFETCH ISSUED TO LOWER LEVEL:   80174401  ACCURACY: 0.000306831
 TIMELY PREFETCHES:        246 LATE PREFETCHES: 0 DROPPED PREFETCHES: 0
LLC4 AVERAGE MISS LATENCY: 1005.39 cycles
LLC5 TOTAL     ACCESS: 251197  HIT: 50465  MISS: 200732  HIT %: 20.0898  MISS %: 79.9102  AVERAGE MISS PENALTY: 989.426
LLC5 LOAD      ACCESS:  1914  HIT:    67  MISS:  1847  HIT %: 3.50052  MISS %: 96.4995  AVERAGE MISS PENALTY: 1213.53
LLC5 RFO       ACCESS: 63370  HIT:    81  MISS: 63289  HIT %: 0.127821  MISS %: 99.8722  AVERAGE MISS PENALTY: 878.138
LLC5 PREFETCH  ACCESS: 121787  HIT:  2708  MISS: 119079  HIT %: 2.22355  MISS %: 97.7764  AVERAGE MISS PENALTY: 1182.34
LLC5 WRITEBACK ACCESS: 64126  HIT: 47609  MISS: 16517  HIT %: 74.2429  MISS %: 25.7571  AVERAGE MISS PENALTY: 0
LLC5 PREFETCH  REQUESTED:     0  ISSUED:     0  USEFUL:   254  USELESS: 955851
 USEFUL LOAD PREFETCHES:        254 PREFETCH ISSUED TO LOWER LEVEL:   74886022  ACCURACY: 0.000339182
 TIMELY PREFETCHES:        254 LATE PREFETCHES: 0 DROPPED PREFETCHES: 0
LLC5 AVERAGE MISS LATENCY: 989.426 cycles
LLC6 TOTAL     ACCESS: 251194  HIT: 50041  MISS: 201153  HIT %: 19.9213  MISS %: 80.0787  AVERAGE MISS PENALTY: 1021.51
LLC6 LOAD      ACCESS:  2073  HIT:    51  MISS:  2022  HIT %: 2.4602  MISS %: 97.5398  AVERAGE MISS PENALTY: 1228.96
LLC6 RFO       ACCESS: 63372  HIT:    93  MISS: 63279  HIT %: 0.146753  MISS %: 99.8532  AVERAGE MISS PENALTY: 952.803
LLC6 PREFETCH  ACCESS: 121604  HIT:  2808  MISS: 118796  HIT %: 2.30913  MISS %: 97.6909  AVERAGE MISS PENALTY: 1201.24
LLC6 WRITEBACK ACCESS: 64145  HIT: 47089  MISS: 17056  HIT %: 73.4102  MISS %: 26.5898  AVERAGE MISS PENALTY: 0
LLC6 PREFETCH  REQUESTED:     0  ISSUED:     0  USEFUL:   234  USELESS: 954153
 USEFUL LOAD PREFETCHES:        234 PREFETCH ISSUED TO LOWER LEVEL:   98395944  ACCURACY: 0.000237815
 TIMELY PREFETCHES:        234 LATE PREFETCHES: 0 DROPPED PREFETCHES: 0
LLC6 AVERAGE MISS LATENCY: 1021.51 cycles
LLC7 TOTAL     ACCESS: 251183  HIT: 49002  MISS: 202181  HIT %: 19.5085  MISS %: 80.4915  AVERAGE MISS PENALTY: 1003.42
LLC7 LOAD      ACCESS:  1956  HIT:    45  MISS:  1911  HIT %: 2.30061  MISS %: 97.6994  AVERAGE MISS PENALTY: 1221.66
LLC7 RFO       ACCESS: 63366  HIT:    91  MISS: 63275  HIT %: 0.14361  MISS %: 99.8564  AVERAGE MISS PENALTY: 930.471
LLC7 PREFETCH  ACCESS: 121726  HIT:  2778  MISS: 118948  HIT %: 2.28217  MISS %: 97.7178  AVERAGE MISS PENALTY: 1190.97
LLC7 WRITEBACK ACCESS: 64135  HIT: 46088  MISS: 18047  HIT %: 71.8609  MISS %: 28.1391  AVERAGE MISS PENALTY: 0
LLC7 PREFETCH  REQUESTED:     0  ISSUED:     0  USEFUL:   288  USELESS: 953886
 USEFUL LOAD PREFETCHES:        288 PREFETCH ISSUED TO LOWER LEVEL:   94966011  ACCURACY: 0.000303266
 TIMELY PREFETCHES:        288 LATE PREFETCHES: 0 DROPPED PREFETCHES: 0
LLC7 AVERAGE MISS LATENCY: 1003.42 cycles
ROI Average ROB Stall Cycles:	6.86287
ROI Total ROB Stalls Cycles:	391052377
ROI TOTAL ROB counter      :	56980857
ROI Average Load ROB Stall Cycles:	17.1378
ROI Total Load ROB Stalls Cycle  :	180259244
ROI Total Load ROB stalls Counter:	10518210
Major fault: 0 Minor fault: 27197








Interconnect Stats 
LINK 0 BW : 0LINK 1 BW : 0LINK 2 BW : 0LINK 3 BW : 0LINK 4 BW : 0LINK 5 BW : 0LINK 6 BW : 0LINK 7 BW : 0
DRAM Statistics
 CHANNEL 0
 RQ ROW_BUFFER_HIT: 2740620  ROW_BUFFER_MISS: 3158205
 DBUS_CONGESTED: 7349846
 WQ ROW_BUFFER_HIT: 233615  ROW_BUFFER_MISS: 1795513  FULL:     0

 CHANNEL 1
 RQ ROW_BUFFER_HIT: 2737246  ROW_BUFFER_MISS: 3163761
 DBUS_CONGESTED: 7349846
 WQ ROW_BUFFER_HIT: 233596  ROW_BUFFER_MISS: 1795866  FULL:     0

 AVG_CONGESTED_CYCLE: 6
DRAM PAGES: 2097152
Allocated PAGES: 217601
L2C destructor called
L1D destructor called
L1I destructor called
STLB destructor called
DTLB destructor called
ITLB destructor called
L2C destructor called
L1D destructor called
L1I destructor called
STLB destructor called
DTLB destructor called
ITLB destructor called
L2C destructor called
L1D destructor called
L1I destructor called
STLB destructor called
DTLB destructor called
ITLB destructor called
L2C destructor called
L1D destructor called
L1I destructor called
STLB destructor called
DTLB destructor called
ITLB destructor called
L2C destructor called
L1D destructor called
L1I destructor called
STLB destructor called
DTLB destructor called
ITLB destructor called
L2C destructor called
L1D destructor called
L1I destructor called
STLB destructor called
DTLB destructor called
ITLB destructor called
L2C destructor called
L1D destructor called
L1I destructor called
STLB destructor called
DTLB destructor called
ITLB destructor called
L2C destructor called
L1D destructor called
L1I destructor called
STLB destructor called
DTLB destructor called
ITLB destructor called
