
*** ChampSim Multicore Out-of-Order Simulator ***

Warmup Instructions: 200000000
Simulation Instructions: 200000000
Number of CPUs: 8
threads:1

L1I Configuration:
L1I_SET:64
L1I_WAY:8
L1I_RQ_SIZE:64
L1I_WQ_SIZE:64
L1I_PQ_SIZE:8
L1I_MSHR_SIZE:8

L1D Configuration:
L1D_SET:64
L1D_WAY:12
L1D_RQ_SIZE:64
L1D_WQ_SIZE:64
L1D_PQ_SIZE:8
L1D_MSHR_SIZE:16

L2C Configuration:
L2C_SET:1024
L2C_WAY:8
L2C_RQ_SIZE:32
L2C_WQ_SIZE:32
L2C_PQ_SIZE:16
L2C_MSHR_SIZE:32

LLC Configuration:
LLC_SET:2048
LLC_WAY:16
LLC SLICES:8
LLC_RQ_SIZE:64
LLC_WQ_SIZE:64
LLC_PQ_SIZE:32
LLC_MSHR_SIZE:64

Interconnect OFF
Attacker deprioritize is: OFF
Off-chip DRAM Size: 8192 MB Channels: 2 Width: 64-bit Data Rate: 3200 MT/s
PAGE SIZE in KB: 4.000000 
PAGE SIZE in MB: 0.003906 
PAGE offset in bits: 12 
CEASER-S_LLC:0
MIRAGE : 0
CEASER_LATENCY:3
REMAP : OFF
Partitions : 1
Multi-Step : OFF
BFS : OFF

CPU 0 runs /home/anubhav/spec_2017/654.roms_s-1390B.champsimtrace.xz
CPU 1 runs /home/anubhav/spec_2017/654.roms_s-1390B.champsimtrace.xz
CPU 2 runs /home/anubhav/spec_2017/654.roms_s-1390B.champsimtrace.xz
CPU 3 runs /home/anubhav/spec_2017/654.roms_s-1390B.champsimtrace.xz
CPU 4 runs /home/anubhav/spec_2017/654.roms_s-1390B.champsimtrace.xz
CPU 5 runs /home/anubhav/spec_2017/654.roms_s-1390B.champsimtrace.xz
CPU 6 runs /home/anubhav/spec_2017/654.roms_s-1390B.champsimtrace.xz
CPU 7 runs /home/anubhav/spec_2017/654.roms_s-1390B.champsimtrace.xz
CPU 0 Bimodal branch predictor
Initialize Hawkeye state
Initialize Hawkeye state
Initialize Hawkeye state
Initialize Hawkeye state
Initialize Hawkeye state
Initialize Hawkeye state
Initialize Hawkeye state
Initialize Hawkeye state
CPU 1 Bimodal branch predictor
Initialize Hawkeye state
Initialize Hawkeye state
Initialize Hawkeye state
Initialize Hawkeye state
Initialize Hawkeye state
Initialize Hawkeye state
Initialize Hawkeye state
Initialize Hawkeye state
CPU 2 Bimodal branch predictor
Initialize Hawkeye state
Initialize Hawkeye state
Initialize Hawkeye state
Initialize Hawkeye state
Initialize Hawkeye state
Initialize Hawkeye state
Initialize Hawkeye state
Initialize Hawkeye state
CPU 3 Bimodal branch predictor
Initialize Hawkeye state
Initialize Hawkeye state
Initialize Hawkeye state
Initialize Hawkeye state
Initialize Hawkeye state
Initialize Hawkeye state
Initialize Hawkeye state
Initialize Hawkeye state
CPU 4 Bimodal branch predictor
Initialize Hawkeye state
Initialize Hawkeye state
Initialize Hawkeye state
Initialize Hawkeye state
Initialize Hawkeye state
Initialize Hawkeye state
Initialize Hawkeye state
Initialize Hawkeye state
CPU 5 Bimodal branch predictor
Initialize Hawkeye state
Initialize Hawkeye state
Initialize Hawkeye state
Initialize Hawkeye state
Initialize Hawkeye state
Initialize Hawkeye state
Initialize Hawkeye state
Initialize Hawkeye state
CPU 6 Bimodal branch predictor
Initialize Hawkeye state
Initialize Hawkeye state
Initialize Hawkeye state
Initialize Hawkeye state
Initialize Hawkeye state
Initialize Hawkeye state
Initialize Hawkeye state
Initialize Hawkeye state
CPU 7 Bimodal branch predictor
Initialize Hawkeye state
Initialize Hawkeye state
Initialize Hawkeye state
Initialize Hawkeye state
Initialize Hawkeye state
Initialize Hawkeye state
Initialize Hawkeye state
Initialize Hawkeye state
Heartbeat CPU 0 instructions: 10000001 cycles: 6407789 heartbeat IPC: 1.5606 cumulative IPC: 1.5606 (Simulation time: 6 hr 16 min 7 sec) 
 Total Blocks : 262144 Invalid Blocks : 2481
Heartbeat CPU 3 instructions: 10000001 cycles: 6407814 heartbeat IPC: 1.56059 cumulative IPC: 1.56059 (Simulation time: 6 hr 16 min 14 sec) 
 Total Blocks : 262144 Invalid Blocks : 2481
Heartbeat CPU 2 instructions: 10000001 cycles: 6407815 heartbeat IPC: 1.56059 cumulative IPC: 1.56059 (Simulation time: 6 hr 16 min 14 sec) 
 Total Blocks : 262144 Invalid Blocks : 2481
Heartbeat CPU 6 instructions: 10000001 cycles: 6407818 heartbeat IPC: 1.56059 cumulative IPC: 1.56059 (Simulation time: 6 hr 16 min 14 sec) 
 Total Blocks : 262144 Invalid Blocks : 2481
Heartbeat CPU 1 instructions: 10000001 cycles: 6407838 heartbeat IPC: 1.56059 cumulative IPC: 1.56059 (Simulation time: 6 hr 16 min 14 sec) 
 Total Blocks : 262144 Invalid Blocks : 2481
Heartbeat CPU 5 instructions: 10000001 cycles: 6407901 heartbeat IPC: 1.56057 cumulative IPC: 1.56057 (Simulation time: 6 hr 16 min 15 sec) 
 Total Blocks : 262144 Invalid Blocks : 2481
Heartbeat CPU 4 instructions: 10000001 cycles: 6407910 heartbeat IPC: 1.56057 cumulative IPC: 1.56057 (Simulation time: 6 hr 16 min 15 sec) 
 Total Blocks : 262144 Invalid Blocks : 2481
Heartbeat CPU 7 instructions: 10000001 cycles: 6407916 heartbeat IPC: 1.56057 cumulative IPC: 1.56057 (Simulation time: 6 hr 16 min 15 sec) 
 Total Blocks : 262144 Invalid Blocks : 2481
Heartbeat CPU 3 instructions: 20000001 cycles: 11136518 heartbeat IPC: 2.11474 cumulative IPC: 1.79589 (Simulation time: 13 hr 6 min 50 sec) 
 Total Blocks : 262144 Invalid Blocks : 28
Heartbeat CPU 0 instructions: 20000001 cycles: 11136522 heartbeat IPC: 2.11473 cumulative IPC: 1.79589 (Simulation time: 13 hr 6 min 54 sec) 
 Total Blocks : 262144 Invalid Blocks : 28
Heartbeat CPU 6 instructions: 20000001 cycles: 11136530 heartbeat IPC: 2.11474 cumulative IPC: 1.79589 (Simulation time: 13 hr 6 min 54 sec) 
 Total Blocks : 262144 Invalid Blocks : 28
Heartbeat CPU 2 instructions: 20000001 cycles: 11136561 heartbeat IPC: 2.11473 cumulative IPC: 1.79589 (Simulation time: 13 hr 6 min 54 sec) 
 Total Blocks : 262144 Invalid Blocks : 28
Heartbeat CPU 7 instructions: 20000001 cycles: 11136564 heartbeat IPC: 2.11477 cumulative IPC: 1.79589 (Simulation time: 13 hr 6 min 54 sec) 
 Total Blocks : 262144 Invalid Blocks : 28
Heartbeat CPU 5 instructions: 20000001 cycles: 11136577 heartbeat IPC: 2.11476 cumulative IPC: 1.79588 (Simulation time: 13 hr 6 min 55 sec) 
 Total Blocks : 262144 Invalid Blocks : 28
Heartbeat CPU 1 instructions: 20000001 cycles: 11136582 heartbeat IPC: 2.11473 cumulative IPC: 1.79588 (Simulation time: 13 hr 6 min 55 sec) 
 Total Blocks : 262144 Invalid Blocks : 28
Heartbeat CPU 4 instructions: 20000001 cycles: 11136671 heartbeat IPC: 2.11472 cumulative IPC: 1.79587 (Simulation time: 13 hr 6 min 55 sec) 
 Total Blocks : 262144 Invalid Blocks : 28
Heartbeat CPU 6 instructions: 30000001 cycles: 15397977 heartbeat IPC: 2.34662 cumulative IPC: 1.94831 (Simulation time: 18 hr 48 min 22 sec) 
 Total Blocks : 262144 Invalid Blocks : 0
Heartbeat CPU 3 instructions: 30000001 cycles: 15398001 heartbeat IPC: 2.3466 cumulative IPC: 1.9483 (Simulation time: 18 hr 48 min 26 sec) 
 Total Blocks : 262144 Invalid Blocks : 0
Heartbeat CPU 7 instructions: 30000001 cycles: 15398063 heartbeat IPC: 2.34659 cumulative IPC: 1.9483 (Simulation time: 18 hr 48 min 27 sec) 
 Total Blocks : 262144 Invalid Blocks : 0
Heartbeat CPU 0 instructions: 30000001 cycles: 15398071 heartbeat IPC: 2.34656 cumulative IPC: 1.9483 (Simulation time: 18 hr 48 min 27 sec) 
 Total Blocks : 262144 Invalid Blocks : 0
Heartbeat CPU 5 instructions: 30000001 cycles: 15398093 heartbeat IPC: 2.34658 cumulative IPC: 1.94829 (Simulation time: 18 hr 48 min 27 sec) 
 Total Blocks : 262144 Invalid Blocks : 0
Heartbeat CPU 2 instructions: 30000001 cycles: 15398112 heartbeat IPC: 2.34656 cumulative IPC: 1.94829 (Simulation time: 18 hr 48 min 27 sec) 
 Total Blocks : 262144 Invalid Blocks : 0
Heartbeat CPU 1 instructions: 30000001 cycles: 15398154 heartbeat IPC: 2.34655 cumulative IPC: 1.94829 (Simulation time: 18 hr 48 min 28 sec) 
 Total Blocks : 262144 Invalid Blocks : 0
Heartbeat CPU 4 instructions: 30000001 cycles: 15398188 heartbeat IPC: 2.34658 cumulative IPC: 1.94828 (Simulation time: 18 hr 48 min 29 sec) 
 Total Blocks : 262144 Invalid Blocks : 0
Heartbeat CPU 6 instructions: 40000001 cycles: 21042275 heartbeat IPC: 1.7717 cumulative IPC: 1.90094 (Simulation time: 25 hr 29 min 28 sec) 
 Total Blocks : 262144 Invalid Blocks : 0
Heartbeat CPU 7 instructions: 40000001 cycles: 21042291 heartbeat IPC: 1.77172 cumulative IPC: 1.90093 (Simulation time: 25 hr 29 min 37 sec) 
 Total Blocks : 262144 Invalid Blocks : 0
Heartbeat CPU 5 instructions: 40000001 cycles: 21042429 heartbeat IPC: 1.77169 cumulative IPC: 1.90092 (Simulation time: 25 hr 29 min 37 sec) 
 Total Blocks : 262144 Invalid Blocks : 0
Heartbeat CPU 3 instructions: 40000001 cycles: 21042445 heartbeat IPC: 1.77165 cumulative IPC: 1.90092 (Simulation time: 25 hr 29 min 37 sec) 
 Total Blocks : 262144 Invalid Blocks : 0
Heartbeat CPU 4 instructions: 40000001 cycles: 21042525 heartbeat IPC: 1.77169 cumulative IPC: 1.90091 (Simulation time: 25 hr 29 min 37 sec) 
 Total Blocks : 262144 Invalid Blocks : 0
Heartbeat CPU 1 instructions: 40000001 cycles: 21042537 heartbeat IPC: 1.77167 cumulative IPC: 1.90091 (Simulation time: 25 hr 29 min 37 sec) 
 Total Blocks : 262144 Invalid Blocks : 0
Heartbeat CPU 0 instructions: 40000001 cycles: 21042635 heartbeat IPC: 1.77162 cumulative IPC: 1.9009 (Simulation time: 25 hr 29 min 38 sec) 
 Total Blocks : 262144 Invalid Blocks : 0
Heartbeat CPU 2 instructions: 40000001 cycles: 21042661 heartbeat IPC: 1.77162 cumulative IPC: 1.9009 (Simulation time: 25 hr 29 min 38 sec) 
 Total Blocks : 262144 Invalid Blocks : 0
Heartbeat CPU 6 instructions: 50000003 cycles: 27309955 heartbeat IPC: 1.59549 cumulative IPC: 1.83083 (Simulation time: 32 hr 58 min 48 sec) 
 Total Blocks : 262144 Invalid Blocks : 0
Heartbeat CPU 7 instructions: 50000003 cycles: 27309966 heartbeat IPC: 1.59549 cumulative IPC: 1.83083 (Simulation time: 32 hr 58 min 50 sec) 
 Total Blocks : 262144 Invalid Blocks : 0
Heartbeat CPU 5 instructions: 50000003 cycles: 27310043 heartbeat IPC: 1.5955 cumulative IPC: 1.83083 (Simulation time: 32 hr 58 min 50 sec) 
 Total Blocks : 262144 Invalid Blocks : 0
Heartbeat CPU 3 instructions: 50000003 cycles: 27310061 heartbeat IPC: 1.5955 cumulative IPC: 1.83083 (Simulation time: 32 hr 58 min 50 sec) 
 Total Blocks : 262144 Invalid Blocks : 0
Heartbeat CPU 1 instructions: 50000003 cycles: 27310176 heartbeat IPC: 1.5955 cumulative IPC: 1.83082 (Simulation time: 32 hr 58 min 50 sec) 
 Total Blocks : 262144 Invalid Blocks : 0
Heartbeat CPU 0 instructions: 50000003 cycles: 27310188 heartbeat IPC: 1.59552 cumulative IPC: 1.83082 (Simulation time: 32 hr 58 min 50 sec) 
 Total Blocks : 262144 Invalid Blocks : 0
Heartbeat CPU 2 instructions: 50000003 cycles: 27310266 heartbeat IPC: 1.59551 cumulative IPC: 1.83081 (Simulation time: 32 hr 58 min 51 sec) 
 Total Blocks : 262144 Invalid Blocks : 0
Heartbeat CPU 4 instructions: 50000003 cycles: 27310289 heartbeat IPC: 1.59547 cumulative IPC: 1.83081 (Simulation time: 32 hr 58 min 51 sec) 
 Total Blocks : 262144 Invalid Blocks : 0
Heartbeat CPU 7 instructions: 60000000 cycles: 30804043 heartbeat IPC: 2.86199 cumulative IPC: 1.9478 (Simulation time: 34 hr 46 min 26 sec) 
 Total Blocks : 262144 Invalid Blocks : 0
Heartbeat CPU 6 instructions: 60000000 cycles: 30804087 heartbeat IPC: 2.86194 cumulative IPC: 1.94779 (Simulation time: 34 hr 46 min 28 sec) 
 Total Blocks : 262144 Invalid Blocks : 0
Heartbeat CPU 5 instructions: 60000000 cycles: 30804148 heartbeat IPC: 2.86196 cumulative IPC: 1.94779 (Simulation time: 34 hr 46 min 29 sec) 
 Total Blocks : 262144 Invalid Blocks : 0
Heartbeat CPU 3 instructions: 60000000 cycles: 30804225 heartbeat IPC: 2.86191 cumulative IPC: 1.94778 (Simulation time: 34 hr 46 min 29 sec) 
 Total Blocks : 262144 Invalid Blocks : 0
Heartbeat CPU 0 instructions: 60000000 cycles: 30804298 heartbeat IPC: 2.86196 cumulative IPC: 1.94778 (Simulation time: 34 hr 46 min 29 sec) 
 Total Blocks : 262144 Invalid Blocks : 0
Heartbeat CPU 1 instructions: 60000000 cycles: 30804362 heartbeat IPC: 2.8619 cumulative IPC: 1.94778 (Simulation time: 34 hr 46 min 29 sec) 
 Total Blocks : 262144 Invalid Blocks : 0
Heartbeat CPU 2 instructions: 60000000 cycles: 30804443 heartbeat IPC: 2.8619 cumulative IPC: 1.94777 (Simulation time: 34 hr 46 min 29 sec) 
 Total Blocks : 262144 Invalid Blocks : 0
Heartbeat CPU 4 instructions: 60000000 cycles: 30804454 heartbeat IPC: 2.86191 cumulative IPC: 1.94777 (Simulation time: 34 hr 46 min 29 sec) 
 Total Blocks : 262144 Invalid Blocks : 0
Heartbeat CPU 7 instructions: 70000002 cycles: 34291261 heartbeat IPC: 2.86762 cumulative IPC: 2.04134 (Simulation time: 35 hr 58 min 58 sec) 
 Total Blocks : 262144 Invalid Blocks : 0
Heartbeat CPU 6 instructions: 70000002 cycles: 34291356 heartbeat IPC: 2.86757 cumulative IPC: 2.04133 (Simulation time: 35 hr 59 min 0 sec) 
 Total Blocks : 262144 Invalid Blocks : 0
Heartbeat CPU 5 instructions: 70000002 cycles: 34291456 heartbeat IPC: 2.86754 cumulative IPC: 2.04132 (Simulation time: 35 hr 59 min 0 sec) 
 Total Blocks : 262144 Invalid Blocks : 0
Heartbeat CPU 3 instructions: 70000002 cycles: 34291534 heartbeat IPC: 2.86754 cumulative IPC: 2.04132 (Simulation time: 35 hr 59 min 0 sec) 
 Total Blocks : 262144 Invalid Blocks : 0
Heartbeat CPU 0 instructions: 70000002 cycles: 34291573 heartbeat IPC: 2.86757 cumulative IPC: 2.04132 (Simulation time: 35 hr 59 min 0 sec) 
 Total Blocks : 262144 Invalid Blocks : 0
Heartbeat CPU 1 instructions: 70000002 cycles: 34291615 heartbeat IPC: 2.86759 cumulative IPC: 2.04132 (Simulation time: 35 hr 59 min 0 sec) 
 Total Blocks : 262144 Invalid Blocks : 0
Heartbeat CPU 4 instructions: 70000002 cycles: 34291725 heartbeat IPC: 2.86757 cumulative IPC: 2.04131 (Simulation time: 35 hr 59 min 1 sec) 
 Total Blocks : 262144 Invalid Blocks : 0
Heartbeat CPU 2 instructions: 70000002 cycles: 34291785 heartbeat IPC: 2.86751 cumulative IPC: 2.04131 (Simulation time: 35 hr 59 min 1 sec) 
 Total Blocks : 262144 Invalid Blocks : 0
Heartbeat CPU 7 instructions: 80000001 cycles: 37778408 heartbeat IPC: 2.86767 cumulative IPC: 2.11761 (Simulation time: 37 hr 11 min 52 sec) 
 Total Blocks : 262144 Invalid Blocks : 0
Heartbeat CPU 6 instructions: 80000001 cycles: 37778502 heartbeat IPC: 2.86767 cumulative IPC: 2.11761 (Simulation time: 37 hr 12 min 21 sec) 
 Total Blocks : 262144 Invalid Blocks : 0
Heartbeat CPU 5 instructions: 80000001 cycles: 37778659 heartbeat IPC: 2.86763 cumulative IPC: 2.1176 (Simulation time: 37 hr 12 min 22 sec) 
 Total Blocks : 262144 Invalid Blocks : 0
Heartbeat CPU 3 instructions: 80000001 cycles: 37778718 heartbeat IPC: 2.86764 cumulative IPC: 2.11759 (Simulation time: 37 hr 12 min 22 sec) 
 Total Blocks : 262144 Invalid Blocks : 0
Heartbeat CPU 0 instructions: 80000001 cycles: 37778752 heartbeat IPC: 2.86765 cumulative IPC: 2.11759 (Simulation time: 37 hr 12 min 22 sec) 
 Total Blocks : 262144 Invalid Blocks : 0
Heartbeat CPU 1 instructions: 80000001 cycles: 37778794 heartbeat IPC: 2.86765 cumulative IPC: 2.11759 (Simulation time: 37 hr 12 min 22 sec) 
 Total Blocks : 262144 Invalid Blocks : 0
Heartbeat CPU 4 instructions: 80000001 cycles: 37778862 heartbeat IPC: 2.86768 cumulative IPC: 2.11759 (Simulation time: 37 hr 12 min 22 sec) 
 Total Blocks : 262144 Invalid Blocks : 0
Heartbeat CPU 2 instructions: 80000001 cycles: 37778940 heartbeat IPC: 2.86767 cumulative IPC: 2.11758 (Simulation time: 37 hr 12 min 22 sec) 
 Total Blocks : 262144 Invalid Blocks : 0
Heartbeat CPU 7 instructions: 90000000 cycles: 42999519 heartbeat IPC: 1.9153 cumulative IPC: 2.09305 (Simulation time: 40 hr 26 min 53 sec) 
 Total Blocks : 262144 Invalid Blocks : 0
Heartbeat CPU 6 instructions: 90000000 cycles: 42999680 heartbeat IPC: 1.91528 cumulative IPC: 2.09304 (Simulation time: 40 hr 26 min 56 sec) 
 Total Blocks : 262144 Invalid Blocks : 0
Heartbeat CPU 5 instructions: 90000000 cycles: 42999879 heartbeat IPC: 1.91526 cumulative IPC: 2.09303 (Simulation time: 40 hr 26 min 56 sec) 
 Total Blocks : 262144 Invalid Blocks : 0
Heartbeat CPU 3 instructions: 90000000 cycles: 42999947 heartbeat IPC: 1.91526 cumulative IPC: 2.09303 (Simulation time: 40 hr 26 min 56 sec) 
 Total Blocks : 262144 Invalid Blocks : 0
Heartbeat CPU 0 instructions: 90000000 cycles: 42999953 heartbeat IPC: 1.91527 cumulative IPC: 2.09303 (Simulation time: 40 hr 26 min 56 sec) 
 Total Blocks : 262144 Invalid Blocks : 0
Heartbeat CPU 1 instructions: 90000000 cycles: 43000003 heartbeat IPC: 1.91527 cumulative IPC: 2.09302 (Simulation time: 40 hr 26 min 56 sec) 
 Total Blocks : 262144 Invalid Blocks : 0
Heartbeat CPU 4 instructions: 90000000 cycles: 43000138 heartbeat IPC: 1.91524 cumulative IPC: 2.09302 (Simulation time: 40 hr 26 min 56 sec) 
 Total Blocks : 262144 Invalid Blocks : 0
Heartbeat CPU 2 instructions: 90000000 cycles: 43000181 heartbeat IPC: 1.91525 cumulative IPC: 2.09301 (Simulation time: 40 hr 26 min 56 sec) 
 Total Blocks : 262144 Invalid Blocks : 0
Heartbeat CPU 7 instructions: 100000003 cycles: 47760731 heartbeat IPC: 2.10031 cumulative IPC: 2.09377 (Simulation time: 42 hr 54 min 48 sec) 
 Total Blocks : 262144 Invalid Blocks : 0
Heartbeat CPU 6 instructions: 100000003 cycles: 47760816 heartbeat IPC: 2.10034 cumulative IPC: 2.09377 (Simulation time: 42 hr 54 min 51 sec) 
 Total Blocks : 262144 Invalid Blocks : 0
Heartbeat CPU 5 instructions: 100000003 cycles: 47761073 heartbeat IPC: 2.10031 cumulative IPC: 2.09376 (Simulation time: 42 hr 54 min 51 sec) 
 Total Blocks : 262144 Invalid Blocks : 0
Heartbeat CPU 3 instructions: 100000003 cycles: 47761196 heartbeat IPC: 2.10029 cumulative IPC: 2.09375 (Simulation time: 42 hr 54 min 51 sec) 
 Total Blocks : 262144 Invalid Blocks : 0
Heartbeat CPU 0 instructions: 100000003 cycles: 47761251 heartbeat IPC: 2.10027 cumulative IPC: 2.09375 (Simulation time: 42 hr 54 min 51 sec) 
 Total Blocks : 262144 Invalid Blocks : 0
Heartbeat CPU 2 instructions: 100000003 cycles: 47761256 heartbeat IPC: 2.10037 cumulative IPC: 2.09375 (Simulation time: 42 hr 54 min 55 sec) 
 Total Blocks : 262144 Invalid Blocks : 0
Heartbeat CPU 1 instructions: 100000003 cycles: 47761287 heartbeat IPC: 2.10027 cumulative IPC: 2.09375 (Simulation time: 42 hr 54 min 57 sec) 
 Total Blocks : 262144 Invalid Blocks : 0
Heartbeat CPU 4 instructions: 100000003 cycles: 47761338 heartbeat IPC: 2.10031 cumulative IPC: 2.09374 (Simulation time: 42 hr 54 min 59 sec) 
 Total Blocks : 262144 Invalid Blocks : 0
Heartbeat CPU 7 instructions: 110000000 cycles: 51746355 heartbeat IPC: 2.50902 cumulative IPC: 2.12575 (Simulation time: 45 hr 14 min 20 sec) 
 Total Blocks : 262144 Invalid Blocks : 0
Heartbeat CPU 6 instructions: 110000000 cycles: 51746682 heartbeat IPC: 2.50886 cumulative IPC: 2.12574 (Simulation time: 45 hr 14 min 24 sec) 
 Total Blocks : 262144 Invalid Blocks : 0
Heartbeat CPU 5 instructions: 110000000 cycles: 51746865 heartbeat IPC: 2.50891 cumulative IPC: 2.12573 (Simulation time: 45 hr 14 min 25 sec) 
 Total Blocks : 262144 Invalid Blocks : 0
Heartbeat CPU 3 instructions: 110000000 cycles: 51747155 heartbeat IPC: 2.50881 cumulative IPC: 2.12572 (Simulation time: 45 hr 14 min 26 sec) 
 Total Blocks : 262144 Invalid Blocks : 0
Heartbeat CPU 2 instructions: 110000000 cycles: 51747200 heartbeat IPC: 2.50882 cumulative IPC: 2.12572 (Simulation time: 45 hr 14 min 26 sec) 
 Total Blocks : 262144 Invalid Blocks : 0
Heartbeat CPU 1 instructions: 110000000 cycles: 51747246 heartbeat IPC: 2.50881 cumulative IPC: 2.12572 (Simulation time: 45 hr 14 min 26 sec) 
 Total Blocks : 262144 Invalid Blocks : 0
Heartbeat CPU 4 instructions: 110000000 cycles: 51747289 heartbeat IPC: 2.50881 cumulative IPC: 2.12572 (Simulation time: 45 hr 14 min 26 sec) 
 Total Blocks : 262144 Invalid Blocks : 0
Heartbeat CPU 0 instructions: 110000000 cycles: 51747318 heartbeat IPC: 2.50874 cumulative IPC: 2.12571 (Simulation time: 45 hr 14 min 27 sec) 
 Total Blocks : 262144 Invalid Blocks : 0
Heartbeat CPU 7 instructions: 120000000 cycles: 55058903 heartbeat IPC: 3.01882 cumulative IPC: 2.17948 (Simulation time: 46 hr 50 min 31 sec) 
 Total Blocks : 262144 Invalid Blocks : 0
Heartbeat CPU 6 instructions: 120000000 cycles: 55059239 heartbeat IPC: 3.01882 cumulative IPC: 2.17947 (Simulation time: 46 hr 50 min 32 sec) 
 Total Blocks : 262144 Invalid Blocks : 0
Heartbeat CPU 5 instructions: 120000000 cycles: 55059414 heartbeat IPC: 3.01882 cumulative IPC: 2.17946 (Simulation time: 46 hr 50 min 32 sec) 
 Total Blocks : 262144 Invalid Blocks : 0
Heartbeat CPU 3 instructions: 120000000 cycles: 55059558 heartbeat IPC: 3.01896 cumulative IPC: 2.17946 (Simulation time: 46 hr 50 min 32 sec) 
 Total Blocks : 262144 Invalid Blocks : 0
Heartbeat CPU 2 instructions: 120000000 cycles: 55059804 heartbeat IPC: 3.01877 cumulative IPC: 2.17945 (Simulation time: 46 hr 50 min 32 sec) 
 Total Blocks : 262144 Invalid Blocks : 0
Heartbeat CPU 1 instructions: 120000000 cycles: 55059826 heartbeat IPC: 3.0188 cumulative IPC: 2.17945 (Simulation time: 46 hr 50 min 32 sec) 
 Total Blocks : 262144 Invalid Blocks : 0
Heartbeat CPU 0 instructions: 120000000 cycles: 55059860 heartbeat IPC: 3.01883 cumulative IPC: 2.17945 (Simulation time: 46 hr 50 min 32 sec) 
 Total Blocks : 262144 Invalid Blocks : 0
Heartbeat CPU 4 instructions: 120000000 cycles: 55059930 heartbeat IPC: 3.01874 cumulative IPC: 2.17944 (Simulation time: 46 hr 50 min 32 sec) 
 Total Blocks : 262144 Invalid Blocks : 0
Heartbeat CPU 7 instructions: 130000003 cycles: 58612504 heartbeat IPC: 2.81405 cumulative IPC: 2.21796 (Simulation time: 48 hr 42 min 19 sec) 
 Total Blocks : 262144 Invalid Blocks : 0
Heartbeat CPU 6 instructions: 130000003 cycles: 58612893 heartbeat IPC: 2.81401 cumulative IPC: 2.21794 (Simulation time: 48 hr 42 min 23 sec) 
 Total Blocks : 262144 Invalid Blocks : 0
Heartbeat CPU 5 instructions: 130000003 cycles: 58612966 heartbeat IPC: 2.81409 cumulative IPC: 2.21794 (Simulation time: 48 hr 42 min 23 sec) 
 Total Blocks : 262144 Invalid Blocks : 0
Heartbeat CPU 3 instructions: 130000003 cycles: 58613132 heartbeat IPC: 2.81407 cumulative IPC: 2.21793 (Simulation time: 48 hr 42 min 23 sec) 
 Total Blocks : 262144 Invalid Blocks : 0
Heartbeat CPU 2 instructions: 130000003 cycles: 58613300 heartbeat IPC: 2.81413 cumulative IPC: 2.21793 (Simulation time: 48 hr 42 min 24 sec) 
 Total Blocks : 262144 Invalid Blocks : 0
Heartbeat CPU 4 instructions: 130000003 cycles: 58613419 heartbeat IPC: 2.81414 cumulative IPC: 2.21792 (Simulation time: 48 hr 42 min 24 sec) 
 Total Blocks : 262144 Invalid Blocks : 0
Heartbeat CPU 0 instructions: 130000003 cycles: 58613446 heartbeat IPC: 2.81406 cumulative IPC: 2.21792 (Simulation time: 48 hr 42 min 25 sec) 
 Total Blocks : 262144 Invalid Blocks : 0
Heartbeat CPU 1 instructions: 130000003 cycles: 58613480 heartbeat IPC: 2.81401 cumulative IPC: 2.21792 (Simulation time: 48 hr 42 min 25 sec) 
 Total Blocks : 262144 Invalid Blocks : 0
Heartbeat CPU 7 instructions: 140000003 cycles: 64346855 heartbeat IPC: 1.74388 cumulative IPC: 2.17571 (Simulation time: 52 hr 40 min 59 sec) 
 Total Blocks : 262144 Invalid Blocks : 0
Heartbeat CPU 6 instructions: 140000003 cycles: 64347230 heartbeat IPC: 1.74388 cumulative IPC: 2.1757 (Simulation time: 52 hr 41 min 2 sec) 
 Total Blocks : 262144 Invalid Blocks : 0
Heartbeat CPU 5 instructions: 140000003 cycles: 64347235 heartbeat IPC: 1.7439 cumulative IPC: 2.1757 (Simulation time: 52 hr 41 min 2 sec) 
 Total Blocks : 262144 Invalid Blocks : 0
Heartbeat CPU 3 instructions: 140000003 cycles: 64347398 heartbeat IPC: 1.7439 cumulative IPC: 2.17569 (Simulation time: 52 hr 41 min 3 sec) 
 Total Blocks : 262144 Invalid Blocks : 0
Heartbeat CPU 2 instructions: 140000003 cycles: 64347562 heartbeat IPC: 1.7439 cumulative IPC: 2.17568 (Simulation time: 52 hr 41 min 3 sec) 
 Total Blocks : 262144 Invalid Blocks : 0
Heartbeat CPU 0 instructions: 140000003 cycles: 64347686 heartbeat IPC: 1.74391 cumulative IPC: 2.17568 (Simulation time: 52 hr 41 min 5 sec) 
 Total Blocks : 262144 Invalid Blocks : 0
Heartbeat CPU 4 instructions: 140000003 cycles: 64347743 heartbeat IPC: 1.74388 cumulative IPC: 2.17568 (Simulation time: 52 hr 41 min 5 sec) 
 Total Blocks : 262144 Invalid Blocks : 0
Heartbeat CPU 1 instructions: 140000003 cycles: 64347749 heartbeat IPC: 1.7439 cumulative IPC: 2.17568 (Simulation time: 52 hr 41 min 5 sec) 
 Total Blocks : 262144 Invalid Blocks : 0
Heartbeat CPU 7 instructions: 150000003 cycles: 69440949 heartbeat IPC: 1.96306 cumulative IPC: 2.16011 (Simulation time: 55 hr 46 min 13 sec) 
 Total Blocks : 262144 Invalid Blocks : 0
Heartbeat CPU 5 instructions: 150000003 cycles: 69441290 heartbeat IPC: 1.96307 cumulative IPC: 2.1601 (Simulation time: 55 hr 46 min 14 sec) 
 Total Blocks : 262144 Invalid Blocks : 0
Heartbeat CPU 6 instructions: 150000003 cycles: 69441380 heartbeat IPC: 1.96304 cumulative IPC: 2.1601 (Simulation time: 55 hr 46 min 14 sec) 
 Total Blocks : 262144 Invalid Blocks : 0
Heartbeat CPU 3 instructions: 150000003 cycles: 69441499 heartbeat IPC: 1.96305 cumulative IPC: 2.16009 (Simulation time: 55 hr 46 min 14 sec) 
 Total Blocks : 262144 Invalid Blocks : 0
Heartbeat CPU 2 instructions: 150000003 cycles: 69441621 heartbeat IPC: 1.96307 cumulative IPC: 2.16009 (Simulation time: 55 hr 46 min 14 sec) 
 Total Blocks : 262144 Invalid Blocks : 0
Heartbeat CPU 0 instructions: 150000003 cycles: 69441774 heartbeat IPC: 1.96306 cumulative IPC: 2.16008 (Simulation time: 55 hr 46 min 14 sec) 
 Total Blocks : 262144 Invalid Blocks : 0
Heartbeat CPU 1 instructions: 150000003 cycles: 69441835 heartbeat IPC: 1.96306 cumulative IPC: 2.16008 (Simulation time: 55 hr 46 min 14 sec) 
 Total Blocks : 262144 Invalid Blocks : 0
Heartbeat CPU 4 instructions: 150000003 cycles: 69441852 heartbeat IPC: 1.96305 cumulative IPC: 2.16008 (Simulation time: 55 hr 46 min 14 sec) 
 Total Blocks : 262144 Invalid Blocks : 0
Heartbeat CPU 7 instructions: 160000001 cycles: 77428779 heartbeat IPC: 1.2519 cumulative IPC: 2.06642 (Simulation time: 60 hr 22 min 38 sec) 
 Total Blocks : 262144 Invalid Blocks : 0
Heartbeat CPU 5 instructions: 160000001 cycles: 77429130 heartbeat IPC: 1.2519 cumulative IPC: 2.06641 (Simulation time: 60 hr 22 min 39 sec) 
 Total Blocks : 262144 Invalid Blocks : 0
Heartbeat CPU 6 instructions: 160000001 cycles: 77429228 heartbeat IPC: 1.2519 cumulative IPC: 2.0664 (Simulation time: 60 hr 22 min 39 sec) 
 Total Blocks : 262144 Invalid Blocks : 0
Heartbeat CPU 3 instructions: 160000001 cycles: 77429331 heartbeat IPC: 1.2519 cumulative IPC: 2.0664 (Simulation time: 60 hr 22 min 40 sec) 
 Total Blocks : 262144 Invalid Blocks : 0
Heartbeat CPU 2 instructions: 160000001 cycles: 77429458 heartbeat IPC: 1.2519 cumulative IPC: 2.0664 (Simulation time: 60 hr 22 min 40 sec) 
 Total Blocks : 262144 Invalid Blocks : 0
Heartbeat CPU 0 instructions: 160000001 cycles: 77429581 heartbeat IPC: 1.25191 cumulative IPC: 2.06639 (Simulation time: 60 hr 22 min 40 sec) 
 Total Blocks : 262144 Invalid Blocks : 0
Heartbeat CPU 1 instructions: 160000001 cycles: 77429665 heartbeat IPC: 1.2519 cumulative IPC: 2.06639 (Simulation time: 60 hr 22 min 40 sec) 
 Total Blocks : 262144 Invalid Blocks : 0
Heartbeat CPU 4 instructions: 160000001 cycles: 77429699 heartbeat IPC: 1.2519 cumulative IPC: 2.06639 (Simulation time: 60 hr 22 min 40 sec) 
 Total Blocks : 262144 Invalid Blocks : 0
Heartbeat CPU 7 instructions: 170000003 cycles: 85510234 heartbeat IPC: 1.2374 cumulative IPC: 1.98807 (Simulation time: 64 hr 33 min 26 sec) 
 Total Blocks : 262144 Invalid Blocks : 0
Heartbeat CPU 5 instructions: 170000003 cycles: 85510586 heartbeat IPC: 1.2374 cumulative IPC: 1.98806 (Simulation time: 64 hr 33 min 27 sec) 
 Total Blocks : 262144 Invalid Blocks : 0
Heartbeat CPU 6 instructions: 170000003 cycles: 85510704 heartbeat IPC: 1.2374 cumulative IPC: 1.98806 (Simulation time: 64 hr 33 min 27 sec) 
 Total Blocks : 262144 Invalid Blocks : 0
Heartbeat CPU 3 instructions: 170000003 cycles: 85510794 heartbeat IPC: 1.2374 cumulative IPC: 1.98805 (Simulation time: 64 hr 33 min 27 sec) 
 Total Blocks : 262144 Invalid Blocks : 0
Heartbeat CPU 2 instructions: 170000003 cycles: 85510906 heartbeat IPC: 1.2374 cumulative IPC: 1.98805 (Simulation time: 64 hr 33 min 27 sec) 
 Total Blocks : 262144 Invalid Blocks : 0
Heartbeat CPU 0 instructions: 170000003 cycles: 85511020 heartbeat IPC: 1.2374 cumulative IPC: 1.98805 (Simulation time: 64 hr 33 min 27 sec) 
 Total Blocks : 262144 Invalid Blocks : 0
Heartbeat CPU 1 instructions: 170000003 cycles: 85511114 heartbeat IPC: 1.2374 cumulative IPC: 1.98805 (Simulation time: 64 hr 33 min 27 sec) 
 Total Blocks : 262144 Invalid Blocks : 0
Heartbeat CPU 4 instructions: 170000003 cycles: 85511143 heartbeat IPC: 1.2374 cumulative IPC: 1.98804 (Simulation time: 64 hr 33 min 27 sec) 
 Total Blocks : 262144 Invalid Blocks : 0
Heartbeat CPU 7 instructions: 180000002 cycles: 93548505 heartbeat IPC: 1.24405 cumulative IPC: 1.92414 (Simulation time: 68 hr 23 min 55 sec) 
 Total Blocks : 262144 Invalid Blocks : 0
Heartbeat CPU 5 instructions: 180000002 cycles: 93548844 heartbeat IPC: 1.24405 cumulative IPC: 1.92413 (Simulation time: 68 hr 23 min 56 sec) 
 Total Blocks : 262144 Invalid Blocks : 0
Heartbeat CPU 6 instructions: 180000002 cycles: 93548950 heartbeat IPC: 1.24405 cumulative IPC: 1.92413 (Simulation time: 68 hr 23 min 56 sec) 
 Total Blocks : 262144 Invalid Blocks : 0
Heartbeat CPU 3 instructions: 180000002 cycles: 93549048 heartbeat IPC: 1.24405 cumulative IPC: 1.92412 (Simulation time: 68 hr 23 min 56 sec) 
 Total Blocks : 262144 Invalid Blocks : 0
Heartbeat CPU 2 instructions: 180000002 cycles: 93549113 heartbeat IPC: 1.24406 cumulative IPC: 1.92412 (Simulation time: 68 hr 23 min 56 sec) 
 Total Blocks : 262144 Invalid Blocks : 0
Heartbeat CPU 0 instructions: 180000002 cycles: 93549236 heartbeat IPC: 1.24406 cumulative IPC: 1.92412 (Simulation time: 68 hr 23 min 56 sec) 
 Total Blocks : 262144 Invalid Blocks : 0
Heartbeat CPU 1 instructions: 180000002 cycles: 93549358 heartbeat IPC: 1.24405 cumulative IPC: 1.92412 (Simulation time: 68 hr 23 min 56 sec) 
 Total Blocks : 262144 Invalid Blocks : 0
Heartbeat CPU 4 instructions: 180000002 cycles: 93549414 heartbeat IPC: 1.24405 cumulative IPC: 1.92412 (Simulation time: 68 hr 23 min 56 sec) 
 Total Blocks : 262144 Invalid Blocks : 0
Heartbeat CPU 7 instructions: 190000001 cycles: 98353131 heartbeat IPC: 2.08133 cumulative IPC: 1.93181 (Simulation time: 69 hr 5 min 18 sec) 
 Total Blocks : 262144 Invalid Blocks : 0
Heartbeat CPU 5 instructions: 190000001 cycles: 98353446 heartbeat IPC: 2.08134 cumulative IPC: 1.93181 (Simulation time: 69 hr 5 min 19 sec) 
 Total Blocks : 262144 Invalid Blocks : 0
Heartbeat CPU 6 instructions: 190000001 cycles: 98353586 heartbeat IPC: 2.08132 cumulative IPC: 1.93181 (Simulation time: 69 hr 5 min 19 sec) 
 Total Blocks : 262144 Invalid Blocks : 0
Heartbeat CPU 3 instructions: 190000001 cycles: 98353672 heartbeat IPC: 2.08133 cumulative IPC: 1.9318 (Simulation time: 69 hr 5 min 19 sec) 
 Total Blocks : 262144 Invalid Blocks : 0
Heartbeat CPU 2 instructions: 190000001 cycles: 98353738 heartbeat IPC: 2.08133 cumulative IPC: 1.9318 (Simulation time: 69 hr 5 min 19 sec) 
 Total Blocks : 262144 Invalid Blocks : 0
Heartbeat CPU 0 instructions: 190000001 cycles: 98353845 heartbeat IPC: 2.08133 cumulative IPC: 1.9318 (Simulation time: 69 hr 5 min 19 sec) 
 Total Blocks : 262144 Invalid Blocks : 0
Heartbeat CPU 1 instructions: 190000001 cycles: 98353968 heartbeat IPC: 2.08133 cumulative IPC: 1.9318 (Simulation time: 69 hr 5 min 19 sec) 
 Total Blocks : 262144 Invalid Blocks : 0
Heartbeat CPU 4 instructions: 190000001 cycles: 98354044 heartbeat IPC: 2.08133 cumulative IPC: 1.9318 (Simulation time: 69 hr 5 min 19 sec) 
 Total Blocks : 262144 Invalid Blocks : 0
Heartbeat CPU 7 instructions: 200000002 cycles: 101961455 heartbeat IPC: 2.77137 cumulative IPC: 1.96153 (Simulation time: 71 hr 27 min 56 sec) 
 Total Blocks : 262144 Invalid Blocks : 0
Heartbeat CPU 5 instructions: 200000002 cycles: 101961769 heartbeat IPC: 2.77137 cumulative IPC: 1.96152 (Simulation time: 71 hr 27 min 56 sec) 
 Total Blocks : 262144 Invalid Blocks : 0
Heartbeat CPU 6 instructions: 200000002 cycles: 101961918 heartbeat IPC: 2.77136 cumulative IPC: 1.96152 (Simulation time: 71 hr 27 min 57 sec) 
 Total Blocks : 262144 Invalid Blocks : 0
Heartbeat CPU 3 instructions: 200000002 cycles: 101962005 heartbeat IPC: 2.77136 cumulative IPC: 1.96151 (Simulation time: 71 hr 27 min 57 sec) 
 Total Blocks : 262144 Invalid Blocks : 0
Heartbeat CPU 2 instructions: 200000002 cycles: 101962056 heartbeat IPC: 2.77137 cumulative IPC: 1.96151 (Simulation time: 71 hr 27 min 57 sec) 
 Total Blocks : 262144 Invalid Blocks : 0
Heartbeat CPU 0 instructions: 200000002 cycles: 101962172 heartbeat IPC: 2.77137 cumulative IPC: 1.96151 (Simulation time: 71 hr 27 min 57 sec) 
 Total Blocks : 262144 Invalid Blocks : 0
Heartbeat CPU 1 instructions: 200000002 cycles: 101962275 heartbeat IPC: 2.77138 cumulative IPC: 1.96151 (Simulation time: 71 hr 27 min 57 sec) 
 Total Blocks : 262144 Invalid Blocks : 0
Heartbeat CPU 4 instructions: 200000002 cycles: 101962291 heartbeat IPC: 2.77143 cumulative IPC: 1.96151 (Simulation time: 71 hr 27 min 57 sec) 
 Total Blocks : 262144 Invalid Blocks : 0

Warmup complete CPU 0 instructions: 200000171 cycles: 101962291 (Simulation time: 71 hr 27 min 57 sec) 
Warmup complete CPU 1 instructions: 200000063 cycles: 101962291 (Simulation time: 71 hr 27 min 57 sec) 
Warmup complete CPU 2 instructions: 200000415 cycles: 101962291 (Simulation time: 71 hr 27 min 57 sec) 
Warmup complete CPU 3 instructions: 200000419 cycles: 101962291 (Simulation time: 71 hr 27 min 57 sec) 
Warmup complete CPU 4 instructions: 200000002 cycles: 101962291 (Simulation time: 71 hr 27 min 57 sec) 
Warmup complete CPU 5 instructions: 200000786 cycles: 101962290 (Simulation time: 71 hr 27 min 57 sec) 
Warmup complete CPU 6 instructions: 200000583 cycles: 101962290 (Simulation time: 71 hr 27 min 57 sec) 
Warmup complete CPU 7 instructions: 200001314 cycles: 101962290 (Simulation time: 71 hr 27 min 57 sec) 

Heartbeat CPU 3 instructions: 210000001 cycles: 124905300 heartbeat IPC: 0.435857 cumulative IPC: 0.435844 (Simulation time: 73 hr 48 min 31 sec) 
 Total Blocks : 262144 Invalid Blocks : 0
Heartbeat CPU 6 instructions: 210000001 cycles: 124975184 heartbeat IPC: 0.434532 cumulative IPC: 0.434514 (Simulation time: 73 hr 48 min 55 sec) 
 Total Blocks : 262144 Invalid Blocks : 0
Heartbeat CPU 1 instructions: 210000000 cycles: 125061917 heartbeat IPC: 0.432907 cumulative IPC: 0.432905 (Simulation time: 73 hr 49 min 21 sec) 
 Total Blocks : 262144 Invalid Blocks : 0
Heartbeat CPU 0 instructions: 210000001 cycles: 125117308 heartbeat IPC: 0.43187 cumulative IPC: 0.431865 (Simulation time: 73 hr 49 min 40 sec) 
 Total Blocks : 262144 Invalid Blocks : 0
Heartbeat CPU 5 instructions: 210000001 cycles: 125320294 heartbeat IPC: 0.428109 cumulative IPC: 0.428085 (Simulation time: 73 hr 50 min 52 sec) 
 Total Blocks : 262144 Invalid Blocks : 0
Heartbeat CPU 7 instructions: 210000001 cycles: 125390380 heartbeat IPC: 0.426823 cumulative IPC: 0.426782 (Simulation time: 73 hr 51 min 14 sec) 
 Total Blocks : 262144 Invalid Blocks : 0
Heartbeat CPU 4 instructions: 210000000 cycles: 125534001 heartbeat IPC: 0.424237 cumulative IPC: 0.424237 (Simulation time: 73 hr 51 min 56 sec) 
 Total Blocks : 262144 Invalid Blocks : 0
Heartbeat CPU 2 instructions: 210000000 cycles: 125648895 heartbeat IPC: 0.422175 cumulative IPC: 0.422162 (Simulation time: 73 hr 52 min 31 sec) 
 Total Blocks : 262144 Invalid Blocks : 0
Heartbeat CPU 3 instructions: 220000000 cycles: 162129483 heartbeat IPC: 0.268643 cumulative IPC: 0.3324 (Simulation time: 76 hr 40 min 38 sec) 
 Total Blocks : 262144 Invalid Blocks : 0
Heartbeat CPU 6 instructions: 220000000 cycles: 162154572 heartbeat IPC: 0.268966 cumulative IPC: 0.332259 (Simulation time: 76 hr 40 min 40 sec) 
 Total Blocks : 262144 Invalid Blocks : 0
Heartbeat CPU 1 instructions: 220000000 cycles: 162159520 heartbeat IPC: 0.269559 cumulative IPC: 0.33224 (Simulation time: 76 hr 40 min 41 sec) 
 Total Blocks : 262144 Invalid Blocks : 0
Heartbeat CPU 5 instructions: 220000000 cycles: 162470288 heartbeat IPC: 0.269179 cumulative IPC: 0.330522 (Simulation time: 76 hr 41 min 1 sec) 
 Total Blocks : 262144 Invalid Blocks : 0
Heartbeat CPU 0 instructions: 220000000 cycles: 162509975 heartbeat IPC: 0.267432 cumulative IPC: 0.330315 (Simulation time: 76 hr 41 min 4 sec) 
 Total Blocks : 262144 Invalid Blocks : 0
Heartbeat CPU 7 instructions: 220000000 cycles: 162874869 heartbeat IPC: 0.266777 cumulative IPC: 0.328318 (Simulation time: 76 hr 41 min 27 sec) 
 Total Blocks : 262144 Invalid Blocks : 0
Heartbeat CPU 4 instructions: 220000000 cycles: 162937757 heartbeat IPC: 0.267353 cumulative IPC: 0.328001 (Simulation time: 76 hr 41 min 31 sec) 
 Total Blocks : 262144 Invalid Blocks : 0
Heartbeat CPU 2 instructions: 220000000 cycles: 162956288 heartbeat IPC: 0.268043 cumulative IPC: 0.327894 (Simulation time: 76 hr 41 min 33 sec) 
 Total Blocks : 262144 Invalid Blocks : 0
Heartbeat CPU 6 instructions: 230000001 cycles: 204804591 heartbeat IPC: 0.234467 cumulative IPC: 0.291703 (Simulation time: 77 hr 42 min 58 sec) 
 Total Blocks : 262144 Invalid Blocks : 0
Heartbeat CPU 3 instructions: 230000001 cycles: 204812363 heartbeat IPC: 0.234286 cumulative IPC: 0.291683 (Simulation time: 77 hr 42 min 59 sec) 
 Total Blocks : 262144 Invalid Blocks : 0
Heartbeat CPU 5 instructions: 230000001 cycles: 205034465 heartbeat IPC: 0.234939 cumulative IPC: 0.291051 (Simulation time: 77 hr 43 min 15 sec) 
 Total Blocks : 262144 Invalid Blocks : 0
Heartbeat CPU 1 instructions: 230000001 cycles: 205037673 heartbeat IPC: 0.233219 cumulative IPC: 0.291049 (Simulation time: 77 hr 43 min 15 sec) 
 Total Blocks : 262144 Invalid Blocks : 0
Heartbeat CPU 0 instructions: 230000001 cycles: 205369060 heartbeat IPC: 0.233323 cumulative IPC: 0.290115 (Simulation time: 77 hr 43 min 38 sec) 
 Total Blocks : 262144 Invalid Blocks : 0
Heartbeat CPU 4 instructions: 230000001 cycles: 205382077 heartbeat IPC: 0.235603 cumulative IPC: 0.29008 (Simulation time: 77 hr 43 min 40 sec) 
 Total Blocks : 262144 Invalid Blocks : 0
Heartbeat CPU 7 instructions: 230000001 cycles: 205868017 heartbeat IPC: 0.232595 cumulative IPC: 0.288711 (Simulation time: 77 hr 44 min 15 sec) 
 Total Blocks : 262144 Invalid Blocks : 0
Heartbeat CPU 2 instructions: 230000001 cycles: 206152318 heartbeat IPC: 0.231503 cumulative IPC: 0.287931 (Simulation time: 77 hr 44 min 34 sec) 
 Total Blocks : 262144 Invalid Blocks : 0
Heartbeat CPU 6 instructions: 240000001 cycles: 241521470 heartbeat IPC: 0.272354 cumulative IPC: 0.286613 (Simulation time: 79 hr 43 min 59 sec) 
 Total Blocks : 262144 Invalid Blocks : 0
Heartbeat CPU 3 instructions: 240000001 cycles: 241612389 heartbeat IPC: 0.271739 cumulative IPC: 0.286427 (Simulation time: 79 hr 44 min 31 sec) 
 Total Blocks : 262144 Invalid Blocks : 0
Heartbeat CPU 1 instructions: 240000001 cycles: 241984231 heartbeat IPC: 0.270661 cumulative IPC: 0.285669 (Simulation time: 79 hr 46 min 39 sec) 
 Total Blocks : 262144 Invalid Blocks : 0
Heartbeat CPU 5 instructions: 240000001 cycles: 242093839 heartbeat IPC: 0.269837 cumulative IPC: 0.28544 (Simulation time: 79 hr 47 min 18 sec) 
 Total Blocks : 262144 Invalid Blocks : 0
Heartbeat CPU 0 instructions: 240000001 cycles: 243455057 heartbeat IPC: 0.262564 cumulative IPC: 0.282699 (Simulation time: 79 hr 53 min 28 sec) 
 Total Blocks : 262144 Invalid Blocks : 0
Heartbeat CPU 4 instructions: 240000001 cycles: 243755693 heartbeat IPC: 0.260596 cumulative IPC: 0.282101 (Simulation time: 79 hr 54 min 56 sec) 
 Total Blocks : 262144 Invalid Blocks : 0
Heartbeat CPU 7 instructions: 240000001 cycles: 244981114 heartbeat IPC: 0.255669 cumulative IPC: 0.279674 (Simulation time: 80 hr 1 min 10 sec) 
 Total Blocks : 262144 Invalid Blocks : 0
Heartbeat CPU 2 instructions: 240000001 cycles: 246150486 heartbeat IPC: 0.250011 cumulative IPC: 0.277412 (Simulation time: 80 hr 6 min 28 sec) 
 Total Blocks : 262144 Invalid Blocks : 0
Heartbeat CPU 3 instructions: 250000003 cycles: 273794861 heartbeat IPC: 0.310728 cumulative IPC: 0.290978 (Simulation time: 82 hr 20 min 3 sec) 
 Total Blocks : 262144 Invalid Blocks : 0
Heartbeat CPU 6 instructions: 250000003 cycles: 273826091 heartbeat IPC: 0.309553 cumulative IPC: 0.290925 (Simulation time: 82 hr 20 min 16 sec) 
 Total Blocks : 262144 Invalid Blocks : 0
Heartbeat CPU 5 instructions: 250000003 cycles: 274378208 heartbeat IPC: 0.309747 cumulative IPC: 0.289992 (Simulation time: 82 hr 23 min 8 sec) 
 Total Blocks : 262144 Invalid Blocks : 0
Heartbeat CPU 1 instructions: 250000003 cycles: 274421840 heartbeat IPC: 0.308284 cumulative IPC: 0.289923 (Simulation time: 82 hr 23 min 18 sec) 
 Total Blocks : 262144 Invalid Blocks : 0
Heartbeat CPU 0 instructions: 250000003 cycles: 276396188 heartbeat IPC: 0.303572 cumulative IPC: 0.286641 (Simulation time: 82 hr 32 min 10 sec) 
 Total Blocks : 262144 Invalid Blocks : 0
Heartbeat CPU 4 instructions: 250000003 cycles: 276946759 heartbeat IPC: 0.301286 cumulative IPC: 0.28574 (Simulation time: 82 hr 34 min 55 sec) 
 Total Blocks : 262144 Invalid Blocks : 0
Heartbeat CPU 7 instructions: 250000003 cycles: 278251305 heartbeat IPC: 0.300569 cumulative IPC: 0.283618 (Simulation time: 82 hr 41 min 5 sec) 
 Total Blocks : 262144 Invalid Blocks : 0
Heartbeat CPU 2 instructions: 250000003 cycles: 279068974 heartbeat IPC: 0.303781 cumulative IPC: 0.282313 (Simulation time: 82 hr 44 min 45 sec) 
 Total Blocks : 262144 Invalid Blocks : 0
Heartbeat CPU 6 instructions: 260000001 cycles: 306849414 heartbeat IPC: 0.302816 cumulative IPC: 0.292841 (Simulation time: 84 hr 22 min 24 sec) 
 Total Blocks : 262144 Invalid Blocks : 0
Heartbeat CPU 3 instructions: 260000001 cycles: 307118297 heartbeat IPC: 0.300089 cumulative IPC: 0.292458 (Simulation time: 84 hr 23 min 4 sec) 
 Total Blocks : 262144 Invalid Blocks : 0
Heartbeat CPU 5 instructions: 260000001 cycles: 307471200 heartbeat IPC: 0.302179 cumulative IPC: 0.291954 (Simulation time: 84 hr 24 min 8 sec) 
 Total Blocks : 262144 Invalid Blocks : 0
Heartbeat CPU 1 instructions: 260000001 cycles: 307535626 heartbeat IPC: 0.301989 cumulative IPC: 0.291866 (Simulation time: 84 hr 24 min 15 sec) 
 Total Blocks : 262144 Invalid Blocks : 0
Heartbeat CPU 0 instructions: 260000002 cycles: 309098406 heartbeat IPC: 0.30579 cumulative IPC: 0.289664 (Simulation time: 84 hr 27 min 34 sec) 
 Total Blocks : 262144 Invalid Blocks : 0
Heartbeat CPU 4 instructions: 260000001 cycles: 309431002 heartbeat IPC: 0.307842 cumulative IPC: 0.2892 (Simulation time: 84 hr 28 min 17 sec) 
 Total Blocks : 262144 Invalid Blocks : 0
Heartbeat CPU 7 instructions: 260000002 cycles: 310109221 heartbeat IPC: 0.313894 cumulative IPC: 0.288252 (Simulation time: 84 hr 29 min 51 sec) 
 Total Blocks : 262144 Invalid Blocks : 0
Heartbeat CPU 2 instructions: 260000001 cycles: 310420414 heartbeat IPC: 0.318965 cumulative IPC: 0.287826 (Simulation time: 84 hr 30 min 34 sec) 
 Total Blocks : 262144 Invalid Blocks : 0
Heartbeat CPU 6 instructions: 270000000 cycles: 319843345 heartbeat IPC: 0.76959 cumulative IPC: 0.321274 (Simulation time: 84 hr 53 min 39 sec) 
 Total Blocks : 262144 Invalid Blocks : 0
Heartbeat CPU 3 instructions: 270000000 cycles: 319883686 heartbeat IPC: 0.783368 cumulative IPC: 0.321215 (Simulation time: 84 hr 53 min 45 sec) 
 Total Blocks : 262144 Invalid Blocks : 0
Heartbeat CPU 5 instructions: 270000000 cycles: 320162218 heartbeat IPC: 0.787959 cumulative IPC: 0.320803 (Simulation time: 84 hr 54 min 27 sec) 
 Total Blocks : 262144 Invalid Blocks : 0
Heartbeat CPU 1 instructions: 270000000 cycles: 320241131 heartbeat IPC: 0.78706 cumulative IPC: 0.32069 (Simulation time: 84 hr 54 min 39 sec) 
 Total Blocks : 262144 Invalid Blocks : 0
Heartbeat CPU 0 instructions: 270000000 cycles: 321583087 heartbeat IPC: 0.800981 cumulative IPC: 0.31873 (Simulation time: 84 hr 58 min 14 sec) 
 Total Blocks : 262144 Invalid Blocks : 0
Heartbeat CPU 4 instructions: 270000000 cycles: 321859929 heartbeat IPC: 0.804575 cumulative IPC: 0.31833 (Simulation time: 84 hr 58 min 54 sec) 
 Total Blocks : 262144 Invalid Blocks : 0
Heartbeat CPU 7 instructions: 270000000 cycles: 322347793 heartbeat IPC: 0.817089 cumulative IPC: 0.317619 (Simulation time: 85 hr 0 min 9 sec) 
 Total Blocks : 262144 Invalid Blocks : 0
Heartbeat CPU 2 instructions: 270000000 cycles: 322700091 heartbeat IPC: 0.814354 cumulative IPC: 0.317116 (Simulation time: 85 hr 1 min 4 sec) 
 Total Blocks : 262144 Invalid Blocks : 0
Heartbeat CPU 3 instructions: 280000001 cycles: 331400567 heartbeat IPC: 0.868291 cumulative IPC: 0.348676 (Simulation time: 85 hr 23 min 54 sec) 
 Total Blocks : 262144 Invalid Blocks : 0
Heartbeat CPU 6 instructions: 280000001 cycles: 331456100 heartbeat IPC: 0.861122 cumulative IPC: 0.348591 (Simulation time: 85 hr 24 min 3 sec) 
 Total Blocks : 262144 Invalid Blocks : 0
Heartbeat CPU 5 instructions: 280000000 cycles: 331726298 heartbeat IPC: 0.864747 cumulative IPC: 0.34818 (Simulation time: 85 hr 24 min 46 sec) 
 Total Blocks : 262144 Invalid Blocks : 0
Heartbeat CPU 1 instructions: 280000001 cycles: 331920671 heartbeat IPC: 0.856198 cumulative IPC: 0.347889 (Simulation time: 85 hr 25 min 16 sec) 
 Total Blocks : 262144 Invalid Blocks : 0
Heartbeat CPU 0 instructions: 280000001 cycles: 333301474 heartbeat IPC: 0.85336 cumulative IPC: 0.345812 (Simulation time: 85 hr 28 min 57 sec) 
 Total Blocks : 262144 Invalid Blocks : 0
Heartbeat CPU 4 instructions: 280000001 cycles: 333561456 heartbeat IPC: 0.854589 cumulative IPC: 0.345424 (Simulation time: 85 hr 29 min 35 sec) 
 Total Blocks : 262144 Invalid Blocks : 0
Heartbeat CPU 7 instructions: 280000001 cycles: 333998820 heartbeat IPC: 0.858294 cumulative IPC: 0.344768 (Simulation time: 85 hr 30 min 41 sec) 
 Total Blocks : 262144 Invalid Blocks : 0
Heartbeat CPU 2 instructions: 280000001 cycles: 334363158 heartbeat IPC: 0.857408 cumulative IPC: 0.344231 (Simulation time: 85 hr 31 min 34 sec) 
 Total Blocks : 262144 Invalid Blocks : 0
Heartbeat CPU 3 instructions: 290000001 cycles: 346712274 heartbeat IPC: 0.653095 cumulative IPC: 0.36772 (Simulation time: 85 hr 59 min 54 sec) 
 Total Blocks : 262144 Invalid Blocks : 0
Heartbeat CPU 6 instructions: 290000000 cycles: 346775973 heartbeat IPC: 0.652747 cumulative IPC: 0.367624 (Simulation time: 85 hr 59 min 59 sec) 
 Total Blocks : 262144 Invalid Blocks : 0
Heartbeat CPU 5 instructions: 290000003 cycles: 347176880 heartbeat IPC: 0.647225 cumulative IPC: 0.367022 (Simulation time: 86 hr 0 min 29 sec) 
 Total Blocks : 262144 Invalid Blocks : 0
Heartbeat CPU 1 instructions: 290000001 cycles: 347309037 heartbeat IPC: 0.649842 cumulative IPC: 0.366828 (Simulation time: 86 hr 0 min 39 sec) 
 Total Blocks : 262144 Invalid Blocks : 0
Heartbeat CPU 0 instructions: 290000001 cycles: 349184447 heartbeat IPC: 0.629605 cumulative IPC: 0.364044 (Simulation time: 86 hr 3 min 33 sec) 
 Total Blocks : 262144 Invalid Blocks : 0
Heartbeat CPU 4 instructions: 290000001 cycles: 349513360 heartbeat IPC: 0.626884 cumulative IPC: 0.363561 (Simulation time: 86 hr 4 min 6 sec) 
 Total Blocks : 262144 Invalid Blocks : 0
Heartbeat CPU 7 instructions: 290000001 cycles: 350203312 heartbeat IPC: 0.617113 cumulative IPC: 0.362546 (Simulation time: 86 hr 5 min 5 sec) 
 Total Blocks : 262144 Invalid Blocks : 0
Heartbeat CPU 2 instructions: 290000003 cycles: 350545395 heartbeat IPC: 0.617962 cumulative IPC: 0.36205 (Simulation time: 86 hr 5 min 32 sec) 
 Total Blocks : 262144 Invalid Blocks : 0
Heartbeat CPU 6 instructions: 300000002 cycles: 383245255 heartbeat IPC: 0.274203 cumulative IPC: 0.355512 (Simulation time: 86 hr 57 min 0 sec) 
 Total Blocks : 262144 Invalid Blocks : 0
Heartbeat CPU 3 instructions: 300000002 cycles: 383286045 heartbeat IPC: 0.27342 cumulative IPC: 0.355461 (Simulation time: 86 hr 57 min 3 sec) 
 Total Blocks : 262144 Invalid Blocks : 0
Heartbeat CPU 5 instructions: 300000001 cycles: 383467608 heartbeat IPC: 0.275552 cumulative IPC: 0.35523 (Simulation time: 86 hr 57 min 15 sec) 
 Total Blocks : 262144 Invalid Blocks : 0
Heartbeat CPU 1 instructions: 300000002 cycles: 383600691 heartbeat IPC: 0.275545 cumulative IPC: 0.355065 (Simulation time: 86 hr 57 min 25 sec) 
 Total Blocks : 262144 Invalid Blocks : 0
Heartbeat CPU 0 instructions: 300000002 cycles: 385199401 heartbeat IPC: 0.277662 cumulative IPC: 0.35306 (Simulation time: 86 hr 59 min 54 sec) 
 Total Blocks : 262144 Invalid Blocks : 0
Heartbeat CPU 4 instructions: 300000002 cycles: 385493804 heartbeat IPC: 0.277929 cumulative IPC: 0.352694 (Simulation time: 87 hr 0 min 18 sec) 
 Total Blocks : 262144 Invalid Blocks : 0
Heartbeat CPU 7 instructions: 300000002 cycles: 385983347 heartbeat IPC: 0.279485 cumulative IPC: 0.352082 (Simulation time: 87 hr 0 min 57 sec) 
 Total Blocks : 262144 Invalid Blocks : 0
Heartbeat CPU 2 instructions: 300000002 cycles: 386243985 heartbeat IPC: 0.280123 cumulative IPC: 0.351762 (Simulation time: 87 hr 1 min 20 sec) 
 Total Blocks : 262144 Invalid Blocks : 0
Heartbeat CPU 3 instructions: 310000002 cycles: 411667795 heartbeat IPC: 0.352339 cumulative IPC: 0.355175 (Simulation time: 87 hr 39 min 59 sec) 
 Total Blocks : 262144 Invalid Blocks : 0
Heartbeat CPU 6 instructions: 310000002 cycles: 411673439 heartbeat IPC: 0.351764 cumulative IPC: 0.355168 (Simulation time: 87 hr 40 min 0 sec) 
 Total Blocks : 262144 Invalid Blocks : 0
Heartbeat CPU 5 instructions: 310000002 cycles: 412002051 heartbeat IPC: 0.350454 cumulative IPC: 0.354791 (Simulation time: 87 hr 40 min 30 sec) 
 Total Blocks : 262144 Invalid Blocks : 0
Heartbeat CPU 1 instructions: 310000002 cycles: 412071499 heartbeat IPC: 0.351237 cumulative IPC: 0.354714 (Simulation time: 87 hr 40 min 36 sec) 
 Total Blocks : 262144 Invalid Blocks : 0
Heartbeat CPU 0 instructions: 310000002 cycles: 414103200 heartbeat IPC: 0.345975 cumulative IPC: 0.352404 (Simulation time: 87 hr 43 min 50 sec) 
 Total Blocks : 262144 Invalid Blocks : 0
Heartbeat CPU 4 instructions: 310000002 cycles: 414314926 heartbeat IPC: 0.346968 cumulative IPC: 0.352166 (Simulation time: 87 hr 44 min 9 sec) 
 Total Blocks : 262144 Invalid Blocks : 0
Heartbeat CPU 7 instructions: 310000002 cycles: 414892654 heartbeat IPC: 0.345909 cumulative IPC: 0.351512 (Simulation time: 87 hr 45 min 2 sec) 
 Total Blocks : 262144 Invalid Blocks : 0
Heartbeat CPU 2 instructions: 310000002 cycles: 415126435 heartbeat IPC: 0.346231 cumulative IPC: 0.351252 (Simulation time: 87 hr 45 min 22 sec) 
 Total Blocks : 262144 Invalid Blocks : 0
Heartbeat CPU 6 instructions: 320000003 cycles: 442448039 heartbeat IPC: 0.324943 cumulative IPC: 0.352436 (Simulation time: 88 hr 24 min 18 sec) 
 Total Blocks : 262144 Invalid Blocks : 0
Heartbeat CPU 3 instructions: 320000003 cycles: 442451224 heartbeat IPC: 0.32485 cumulative IPC: 0.352433 (Simulation time: 88 hr 24 min 18 sec) 
 Total Blocks : 262144 Invalid Blocks : 0
Heartbeat CPU 5 instructions: 320000001 cycles: 442995012 heartbeat IPC: 0.322654 cumulative IPC: 0.35187 (Simulation time: 88 hr 25 min 11 sec) 
 Total Blocks : 262144 Invalid Blocks : 0
Heartbeat CPU 1 instructions: 320000001 cycles: 443172897 heartbeat IPC: 0.321529 cumulative IPC: 0.351689 (Simulation time: 88 hr 25 min 26 sec) 
 Total Blocks : 262144 Invalid Blocks : 0
Heartbeat CPU 0 instructions: 320000003 cycles: 445250908 heartbeat IPC: 0.321051 cumulative IPC: 0.34956 (Simulation time: 88 hr 29 min 3 sec) 
 Total Blocks : 262144 Invalid Blocks : 0
Heartbeat CPU 4 instructions: 320000003 cycles: 445505690 heartbeat IPC: 0.320608 cumulative IPC: 0.349301 (Simulation time: 88 hr 29 min 26 sec) 
 Total Blocks : 262144 Invalid Blocks : 0
Heartbeat CPU 7 instructions: 320000003 cycles: 445820841 heartbeat IPC: 0.32333 cumulative IPC: 0.348977 (Simulation time: 88 hr 29 min 56 sec) 
 Total Blocks : 262144 Invalid Blocks : 0
Heartbeat CPU 2 instructions: 320000003 cycles: 445971383 heartbeat IPC: 0.324202 cumulative IPC: 0.348827 (Simulation time: 88 hr 30 min 10 sec) 
 Total Blocks : 262144 Invalid Blocks : 0
Heartbeat CPU 3 instructions: 330000000 cycles: 464422150 heartbeat IPC: 0.455147 cumulative IPC: 0.358659 (Simulation time: 89 hr 0 min 23 sec) 
 Total Blocks : 262144 Invalid Blocks : 0
Heartbeat CPU 6 instructions: 330000000 cycles: 464430838 heartbeat IPC: 0.454901 cumulative IPC: 0.35865 (Simulation time: 89 hr 0 min 24 sec) 
 Total Blocks : 262144 Invalid Blocks : 0
Heartbeat CPU 5 instructions: 330000000 cycles: 465417034 heartbeat IPC: 0.44599 cumulative IPC: 0.357676 (Simulation time: 89 hr 1 min 43 sec) 
 Total Blocks : 262144 Invalid Blocks : 0
Heartbeat CPU 1 instructions: 330000000 cycles: 465498845 heartbeat IPC: 0.447909 cumulative IPC: 0.357598 (Simulation time: 89 hr 1 min 50 sec) 
 Total Blocks : 262144 Invalid Blocks : 0
Heartbeat CPU 0 instructions: 330000000 cycles: 468543474 heartbeat IPC: 0.429321 cumulative IPC: 0.354628 (Simulation time: 89 hr 6 min 21 sec) 
 Total Blocks : 262144 Invalid Blocks : 0
Heartbeat CPU 4 instructions: 330000000 cycles: 468863547 heartbeat IPC: 0.428121 cumulative IPC: 0.354319 (Simulation time: 89 hr 6 min 47 sec) 
 Total Blocks : 262144 Invalid Blocks : 0
Heartbeat CPU 7 instructions: 330000000 cycles: 469287049 heartbeat IPC: 0.426145 cumulative IPC: 0.353907 (Simulation time: 89 hr 7 min 19 sec) 
 Total Blocks : 262144 Invalid Blocks : 0
Heartbeat CPU 2 instructions: 330000000 cycles: 469523372 heartbeat IPC: 0.424592 cumulative IPC: 0.353682 (Simulation time: 89 hr 7 min 36 sec) 
 Total Blocks : 262144 Invalid Blocks : 0
Heartbeat CPU 6 instructions: 340000002 cycles: 501795854 heartbeat IPC: 0.26763 cumulative IPC: 0.350144 (Simulation time: 89 hr 51 min 2 sec) 
 Total Blocks : 262144 Invalid Blocks : 0
Heartbeat CPU 3 instructions: 340000002 cycles: 501838132 heartbeat IPC: 0.267266 cumulative IPC: 0.350108 (Simulation time: 89 hr 51 min 4 sec) 
 Total Blocks : 262144 Invalid Blocks : 0
Heartbeat CPU 1 instructions: 340000002 cycles: 502892165 heartbeat IPC: 0.267428 cumulative IPC: 0.349188 (Simulation time: 89 hr 52 min 17 sec) 
 Total Blocks : 262144 Invalid Blocks : 0
Heartbeat CPU 5 instructions: 340000002 cycles: 502962756 heartbeat IPC: 0.266342 cumulative IPC: 0.349125 (Simulation time: 89 hr 52 min 21 sec) 
 Total Blocks : 262144 Invalid Blocks : 0
Heartbeat CPU 0 instructions: 340000002 cycles: 506197986 heartbeat IPC: 0.265572 cumulative IPC: 0.346332 (Simulation time: 89 hr 56 min 18 sec) 
 Total Blocks : 262144 Invalid Blocks : 0
Heartbeat CPU 4 instructions: 340000002 cycles: 506297513 heartbeat IPC: 0.267137 cumulative IPC: 0.346247 (Simulation time: 89 hr 56 min 24 sec) 
 Total Blocks : 262144 Invalid Blocks : 0
Heartbeat CPU 7 instructions: 340000002 cycles: 506551138 heartbeat IPC: 0.268355 cumulative IPC: 0.346027 (Simulation time: 89 hr 56 min 39 sec) 
 Total Blocks : 262144 Invalid Blocks : 0
Heartbeat CPU 2 instructions: 340000002 cycles: 506781348 heartbeat IPC: 0.268399 cumulative IPC: 0.345832 (Simulation time: 89 hr 56 min 58 sec) 
 Total Blocks : 262144 Invalid Blocks : 0
Heartbeat CPU 3 instructions: 350000003 cycles: 542584567 heartbeat IPC: 0.24542 cumulative IPC: 0.340427 (Simulation time: 90 hr 54 min 5 sec) 
 Total Blocks : 262144 Invalid Blocks : 0
Heartbeat CPU 6 instructions: 350000003 cycles: 542666344 heartbeat IPC: 0.244675 cumulative IPC: 0.340363 (Simulation time: 90 hr 54 min 10 sec) 
 Total Blocks : 262144 Invalid Blocks : 0
Heartbeat CPU 1 instructions: 350000003 cycles: 543840732 heartbeat IPC: 0.244209 cumulative IPC: 0.33946 (Simulation time: 90 hr 55 min 26 sec) 
 Total Blocks : 262144 Invalid Blocks : 0
Heartbeat CPU 5 instructions: 350000003 cycles: 543855740 heartbeat IPC: 0.244541 cumulative IPC: 0.339447 (Simulation time: 90 hr 55 min 27 sec) 
 Total Blocks : 262144 Invalid Blocks : 0
Heartbeat CPU 0 instructions: 350000003 cycles: 546880955 heartbeat IPC: 0.245803 cumulative IPC: 0.33714 (Simulation time: 90 hr 58 min 41 sec) 
 Total Blocks : 262144 Invalid Blocks : 0
Heartbeat CPU 4 instructions: 350000003 cycles: 547025562 heartbeat IPC: 0.245531 cumulative IPC: 0.337031 (Simulation time: 90 hr 58 min 48 sec) 
 Total Blocks : 262144 Invalid Blocks : 0
Heartbeat CPU 7 instructions: 350000003 cycles: 547121932 heartbeat IPC: 0.246483 cumulative IPC: 0.336955 (Simulation time: 90 hr 58 min 53 sec) 
 Total Blocks : 262144 Invalid Blocks : 0
Heartbeat CPU 2 instructions: 350000003 cycles: 547400333 heartbeat IPC: 0.24619 cumulative IPC: 0.336746 (Simulation time: 90 hr 59 min 10 sec) 
 Total Blocks : 262144 Invalid Blocks : 0
Heartbeat CPU 3 instructions: 360000001 cycles: 576454460 heartbeat IPC: 0.295247 cumulative IPC: 0.337202 (Simulation time: 91 hr 47 min 19 sec) 
 Total Blocks : 262144 Invalid Blocks : 0
Heartbeat CPU 6 instructions: 360000001 cycles: 576516407 heartbeat IPC: 0.29542 cumulative IPC: 0.337157 (Simulation time: 91 hr 47 min 29 sec) 
 Total Blocks : 262144 Invalid Blocks : 0
Heartbeat CPU 5 instructions: 360000001 cycles: 577581905 heartbeat IPC: 0.296506 cumulative IPC: 0.336402 (Simulation time: 91 hr 50 min 12 sec) 
 Total Blocks : 262144 Invalid Blocks : 0
Heartbeat CPU 1 instructions: 360000001 cycles: 577850314 heartbeat IPC: 0.294035 cumulative IPC: 0.336213 (Simulation time: 91 hr 51 min 7 sec) 
 Total Blocks : 262144 Invalid Blocks : 0
Heartbeat CPU 4 instructions: 360000001 cycles: 581420593 heartbeat IPC: 0.29074 cumulative IPC: 0.33371 (Simulation time: 92 hr 0 min 37 sec) 
 Total Blocks : 262144 Invalid Blocks : 0
Heartbeat CPU 0 instructions: 360000001 cycles: 581428351 heartbeat IPC: 0.289457 cumulative IPC: 0.333704 (Simulation time: 92 hr 0 min 39 sec) 
 Total Blocks : 262144 Invalid Blocks : 0
Heartbeat CPU 7 instructions: 360000001 cycles: 581537192 heartbeat IPC: 0.290569 cumulative IPC: 0.333626 (Simulation time: 92 hr 0 min 53 sec) 
 Total Blocks : 262144 Invalid Blocks : 0
Heartbeat CPU 2 instructions: 360000001 cycles: 582037234 heartbeat IPC: 0.288709 cumulative IPC: 0.33328 (Simulation time: 92 hr 2 min 10 sec) 
 Total Blocks : 262144 Invalid Blocks : 0
Heartbeat CPU 6 instructions: 370000003 cycles: 600526845 heartbeat IPC: 0.416486 cumulative IPC: 0.340978 (Simulation time: 92 hr 51 min 33 sec) 
 Total Blocks : 262144 Invalid Blocks : 0
Heartbeat CPU 3 instructions: 370000001 cycles: 600549281 heartbeat IPC: 0.415027 cumulative IPC: 0.340963 (Simulation time: 92 hr 51 min 38 sec) 
 Total Blocks : 262144 Invalid Blocks : 0
Heartbeat CPU 5 instructions: 370000001 cycles: 601683386 heartbeat IPC: 0.414912 cumulative IPC: 0.340188 (Simulation time: 92 hr 54 min 31 sec) 
 Total Blocks : 262144 Invalid Blocks : 0
Heartbeat CPU 1 instructions: 370000001 cycles: 602082546 heartbeat IPC: 0.412674 cumulative IPC: 0.339918 (Simulation time: 92 hr 55 min 36 sec) 
 Total Blocks : 262144 Invalid Blocks : 0
Heartbeat CPU 4 instructions: 370000001 cycles: 605294848 heartbeat IPC: 0.418861 cumulative IPC: 0.337749 (Simulation time: 93 hr 4 min 18 sec) 
 Total Blocks : 262144 Invalid Blocks : 0
Heartbeat CPU 0 instructions: 370000001 cycles: 605365305 heartbeat IPC: 0.417764 cumulative IPC: 0.337701 (Simulation time: 93 hr 4 min 28 sec) 
 Total Blocks : 262144 Invalid Blocks : 0
Heartbeat CPU 7 instructions: 370000001 cycles: 605535824 heartbeat IPC: 0.41669 cumulative IPC: 0.337585 (Simulation time: 93 hr 4 min 56 sec) 
 Total Blocks : 262144 Invalid Blocks : 0
Heartbeat CPU 2 instructions: 370000001 cycles: 605993455 heartbeat IPC: 0.417428 cumulative IPC: 0.33728 (Simulation time: 93 hr 6 min 19 sec) 
 Total Blocks : 262144 Invalid Blocks : 0
Heartbeat CPU 6 instructions: 380000003 cycles: 621320616 heartbeat IPC: 0.480913 cumulative IPC: 0.34658 (Simulation time: 93 hr 49 min 16 sec) 
 Total Blocks : 262144 Invalid Blocks : 0
Heartbeat CPU 3 instructions: 380000001 cycles: 621370875 heartbeat IPC: 0.480271 cumulative IPC: 0.346547 (Simulation time: 93 hr 49 min 25 sec) 
 Total Blocks : 262144 Invalid Blocks : 0
Heartbeat CPU 5 instructions: 380000001 cycles: 622576373 heartbeat IPC: 0.478629 cumulative IPC: 0.345744 (Simulation time: 93 hr 52 min 43 sec) 
 Total Blocks : 262144 Invalid Blocks : 0
Heartbeat CPU 1 instructions: 380000003 cycles: 623006114 heartbeat IPC: 0.47793 cumulative IPC: 0.34546 (Simulation time: 93 hr 54 min 4 sec) 
 Total Blocks : 262144 Invalid Blocks : 0
Heartbeat CPU 4 instructions: 380000003 cycles: 626071177 heartbeat IPC: 0.481317 cumulative IPC: 0.34344 (Simulation time: 94 hr 2 min 28 sec) 
 Total Blocks : 262144 Invalid Blocks : 0
Heartbeat CPU 0 instructions: 380000003 cycles: 626223328 heartbeat IPC: 0.479432 cumulative IPC: 0.34334 (Simulation time: 94 hr 2 min 51 sec) 
 Total Blocks : 262144 Invalid Blocks : 0
Heartbeat CPU 7 instructions: 380000003 cycles: 626278769 heartbeat IPC: 0.482092 cumulative IPC: 0.343302 (Simulation time: 94 hr 2 min 59 sec) 
 Total Blocks : 262144 Invalid Blocks : 0
Heartbeat CPU 2 instructions: 380000003 cycles: 626855624 heartbeat IPC: 0.479337 cumulative IPC: 0.342926 (Simulation time: 94 hr 4 min 37 sec) 
 Total Blocks : 262144 Invalid Blocks : 0
Heartbeat CPU 3 instructions: 390000000 cycles: 646542670 heartbeat IPC: 0.39727 cumulative IPC: 0.348892 (Simulation time: 94 hr 48 min 30 sec) 
 Total Blocks : 262144 Invalid Blocks : 0
Heartbeat CPU 6 instructions: 390000000 cycles: 646601156 heartbeat IPC: 0.395561 cumulative IPC: 0.348854 (Simulation time: 94 hr 48 min 34 sec) 
 Total Blocks : 262144 Invalid Blocks : 0
Heartbeat CPU 5 instructions: 390000000 cycles: 647507066 heartbeat IPC: 0.401112 cumulative IPC: 0.348274 (Simulation time: 94 hr 50 min 2 sec) 
 Total Blocks : 262144 Invalid Blocks : 0
Heartbeat CPU 1 instructions: 390000000 cycles: 647800182 heartbeat IPC: 0.403322 cumulative IPC: 0.348089 (Simulation time: 94 hr 50 min 29 sec) 
 Total Blocks : 262144 Invalid Blocks : 0
Heartbeat CPU 4 instructions: 390000000 cycles: 649801721 heartbeat IPC: 0.421398 cumulative IPC: 0.346817 (Simulation time: 94 hr 53 min 57 sec) 
 Total Blocks : 262144 Invalid Blocks : 0
Heartbeat CPU 0 instructions: 390000000 cycles: 649846739 heartbeat IPC: 0.423309 cumulative IPC: 0.346788 (Simulation time: 94 hr 54 min 2 sec) 
 Total Blocks : 262144 Invalid Blocks : 0
Heartbeat CPU 7 instructions: 390000000 cycles: 649883731 heartbeat IPC: 0.42364 cumulative IPC: 0.346763 (Simulation time: 94 hr 54 min 5 sec) 
 Total Blocks : 262144 Invalid Blocks : 0
Heartbeat CPU 2 instructions: 390000000 cycles: 650411309 heartbeat IPC: 0.424526 cumulative IPC: 0.346431 (Simulation time: 94 hr 54 min 57 sec) 
 Total Blocks : 262144 Invalid Blocks : 0
Heartbeat CPU 3 instructions: 400000001 cycles: 665524786 heartbeat IPC: 0.526812 cumulative IPC: 0.354884 (Simulation time: 95 hr 23 min 34 sec) 
 Total Blocks : 262144 Invalid Blocks : 0
Finished CPU 3 instructions: 200000000 cycles: 563563443 cumulative IPC: 0.354885 (Simulation time: 95 hr 23 min 35 sec) 
Heartbeat CPU 6 instructions: 400000001 cycles: 665650971 heartbeat IPC: 0.52494 cumulative IPC: 0.354805 (Simulation time: 95 hr 23 min 47 sec) 
 Total Blocks : 262144 Invalid Blocks : 0
Finished CPU 6 instructions: 200000000 cycles: 563690232 cumulative IPC: 0.354805 (Simulation time: 95 hr 23 min 47 sec) 
Heartbeat CPU 5 instructions: 400000001 cycles: 666662826 heartbeat IPC: 0.522036 cumulative IPC: 0.354169 (Simulation time: 95 hr 25 min 35 sec) 
 Total Blocks : 262144 Invalid Blocks : 0
Finished CPU 5 instructions: 200000001 cycles: 564701804 cumulative IPC: 0.354169 (Simulation time: 95 hr 25 min 35 sec) 
Heartbeat CPU 1 instructions: 400000000 cycles: 666908021 heartbeat IPC: 0.523345 cumulative IPC: 0.354016 (Simulation time: 95 hr 26 min 0 sec) 
 Total Blocks : 262144 Invalid Blocks : 0
Finished CPU 1 instructions: 200000000 cycles: 564945975 cumulative IPC: 0.354016 (Simulation time: 95 hr 26 min 0 sec) 
Heartbeat CPU 0 instructions: 400000001 cycles: 668422384 heartbeat IPC: 0.538339 cumulative IPC: 0.35307 (Simulation time: 95 hr 28 min 35 sec) 
 Total Blocks : 262144 Invalid Blocks : 0
Finished CPU 0 instructions: 200000000 cycles: 566460717 cumulative IPC: 0.353069 (Simulation time: 95 hr 28 min 36 sec) 
Heartbeat CPU 4 instructions: 400000000 cycles: 668432656 heartbeat IPC: 0.536742 cumulative IPC: 0.353063 (Simulation time: 95 hr 28 min 37 sec) 
 Total Blocks : 262144 Invalid Blocks : 0
Finished CPU 4 instructions: 200000000 cycles: 566470381 cumulative IPC: 0.353063 (Simulation time: 95 hr 28 min 37 sec) 
Heartbeat CPU 7 instructions: 400000000 cycles: 668568252 heartbeat IPC: 0.535202 cumulative IPC: 0.352977 (Simulation time: 95 hr 28 min 52 sec) 
 Total Blocks : 262144 Invalid Blocks : 0
Finished CPU 7 instructions: 200000001 cycles: 566607987 cumulative IPC: 0.352978 (Simulation time: 95 hr 28 min 53 sec) 
Heartbeat CPU 2 instructions: 400000001 cycles: 669330080 heartbeat IPC: 0.528576 cumulative IPC: 0.352504 (Simulation time: 95 hr 29 min 59 sec) 
 Total Blocks : 262144 Invalid Blocks : 0
Finished CPU 2 instructions: 200000000 cycles: 567369239 cumulative IPC: 0.352504 (Simulation time: 95 hr 30 min 0 sec) 

CPU 0 Branch Prediction Accuracy: 99.7506% MPKI: 0.0847593 Average ROB Occupancy at Mispredict: 348.778

CPU 1 Branch Prediction Accuracy: 99.7508% MPKI: 0.0849417 Average ROB Occupancy at Mispredict: 348.76

CPU 2 Branch Prediction Accuracy: 99.7508% MPKI: 0.0848448 Average ROB Occupancy at Mispredict: 348.773

CPU 3 Branch Prediction Accuracy: 99.7511% MPKI: 0.0851992 Average ROB Occupancy at Mispredict: 348.736

CPU 4 Branch Prediction Accuracy: 99.7507% MPKI: 0.0847575 Average ROB Occupancy at Mispredict: 348.771

CPU 5 Branch Prediction Accuracy: 99.7508% MPKI: 0.0849901 Average ROB Occupancy at Mispredict: 348.757

CPU 6 Branch Prediction Accuracy: 99.7511% MPKI: 0.0851866 Average ROB Occupancy at Mispredict: 348.736

CPU 7 Branch Prediction Accuracy: 99.7507% MPKI: 0.0847684 Average ROB Occupancy at Mispredict: 348.788

ChampSim completed all CPUs

Total Simulation Statistics (not including warmup)

CPU 0 cumulative IPC: 0.353526 instructions: 200579525 cycles: 567369239
ITLB TOTAL     ACCESS: 35426474  HIT: 35426474  MISS:     0  HIT %:   100  MISS %:     0  AVERAGE MISS PENALTY: 0
ITLB LOAD      ACCESS: 35426474  HIT: 35426474  MISS:     0  HIT %:   100  MISS %:     0  AVERAGE MISS PENALTY: 0
ITLB RFO       ACCESS:     0  HIT:     0  MISS:     0  HIT %:     0  MISS %:     0  AVERAGE MISS PENALTY: 0
ITLB PREFETCH  ACCESS:     0  HIT:     0  MISS:     0  HIT %:     0  MISS %:     0  AVERAGE MISS PENALTY: 0
ITLB WRITEBACK ACCESS:     0  HIT:     0  MISS:     0  HIT %:     0  MISS %:     0  AVERAGE MISS PENALTY: 0

DTLB TOTAL     ACCESS: 60184259  HIT: 59995007  MISS: 189252  HIT %: 99.6855  MISS %: 0.314454  AVERAGE MISS PENALTY: 83.4834
DTLB LOAD      ACCESS: 52767099  HIT: 52627059  MISS: 140040  HIT %: 99.7346  MISS %: 0.265393  AVERAGE MISS PENALTY: 94.4965
DTLB RFO       ACCESS: 7417160  HIT: 7367948  MISS: 49212  HIT %: 99.3365  MISS %: 0.663488  AVERAGE MISS PENALTY: 52.1441
DTLB PREFETCH  ACCESS:     0  HIT:     0  MISS:     0  HIT %:     0  MISS %:     0  AVERAGE MISS PENALTY: 0
DTLB WRITEBACK ACCESS:     0  HIT:     0  MISS:     0  HIT %:     0  MISS %:     0  AVERAGE MISS PENALTY: 0

STLB TOTAL     ACCESS: 189252  HIT: 76094  MISS: 113158  HIT %: 40.2078  MISS %: 59.7922  AVERAGE MISS PENALTY: 100
STLB LOAD      ACCESS: 140040  HIT: 47555  MISS: 92485  HIT %: 33.9582  MISS %: 66.0418  AVERAGE MISS PENALTY: 100
STLB RFO       ACCESS: 49212  HIT: 28539  MISS: 20673  HIT %: 57.992  MISS %: 42.008  AVERAGE MISS PENALTY: 100
STLB PREFETCH  ACCESS:     0  HIT:     0  MISS:     0  HIT %:     0  MISS %:     0  AVERAGE MISS PENALTY: 0
STLB WRITEBACK ACCESS:     0  HIT:     0  MISS:     0  HIT %:     0  MISS %:     0  AVERAGE MISS PENALTY: 0

L1D TOTAL     ACCESS: 65221842  HIT: 59552532  MISS: 5669310  HIT %: 91.3077  MISS %: 8.69235  AVERAGE MISS PENALTY: 5.80644e+07
L1D LOAD      ACCESS: 47545388  HIT: 46546750  MISS: 998638  HIT %: 97.8996  MISS %: 2.10039  AVERAGE MISS PENALTY: 3.29631e+08
L1D RFO       ACCESS: 6475317  HIT: 5312151  MISS: 1163166  HIT %: 82.0369  MISS %: 17.9631  AVERAGE MISS PENALTY: 1337.16
L1D PREFETCH  ACCESS: 11201137  HIT: 7693631  MISS: 3507506  HIT %: 68.6862  MISS %: 31.3138  AVERAGE MISS PENALTY: 386.296
L1D WRITEBACK ACCESS:     0  HIT:     0  MISS:     0  HIT %:     0  MISS %:     0  AVERAGE MISS PENALTY: 0

L1I TOTAL     ACCESS: 46610302  HIT: 46609568  MISS:   734  HIT %: 99.9984  MISS %: 0.00157476  AVERAGE MISS PENALTY: 1066.17
L1I LOAD      ACCESS: 46610302  HIT: 46609568  MISS:   734  HIT %: 99.9984  MISS %: 0.00157476  AVERAGE MISS PENALTY: 1066.17
L1I RFO       ACCESS:     0  HIT:     0  MISS:     0  HIT %:     0  MISS %:     0  AVERAGE MISS PENALTY: 0
L1I PREFETCH  ACCESS:     0  HIT:     0  MISS:     0  HIT %:     0  MISS %:     0  AVERAGE MISS PENALTY: 0
L1I WRITEBACK ACCESS:     0  HIT:     0  MISS:     0  HIT %:     0  MISS %:     0  AVERAGE MISS PENALTY: 0

L2C TOTAL     ACCESS: 10002422  HIT: 4749600  MISS: 5252822  HIT %: 47.4845  MISS %: 52.5155  AVERAGE MISS PENALTY: 5.96371e+07
L2C LOAD      ACCESS: 979237  HIT: 57146  MISS: 922091  HIT %: 5.83577  MISS %: 94.1642  AVERAGE MISS PENALTY: 3.39726e+08
L2C RFO       ACCESS: 1163165  HIT:    21  MISS: 1163144  HIT %: 0.00180542  MISS %: 99.9982  AVERAGE MISS PENALTY: 1482.03
L2C PREFETCH  ACCESS: 6426256  HIT: 3310828  MISS: 3115428  HIT %: 51.5203  MISS %: 48.4797  AVERAGE MISS PENALTY: 1096.14
L2C WRITEBACK ACCESS: 1433764  HIT: 1381605  MISS: 52159  HIT %: 96.3621  MISS %: 3.63791  AVERAGE MISS PENALTY: 0


LLC0 TOTAL     ACCESS: 827728  HIT: 145395  MISS: 682333  HIT %: 17.5656  MISS %: 82.4344  AVERAGE MISS PENALTY: 1016.95
LLC0 LOAD      ACCESS: 69072  HIT:  1150  MISS: 67922  HIT %: 1.66493  MISS %: 98.3351  AVERAGE MISS PENALTY: 921.962
LLC0 RFO       ACCESS: 145393  HIT:   800  MISS: 144593  HIT %: 0.550233  MISS %: 99.4498  AVERAGE MISS PENALTY: 1073.42
LLC0 PREFETCH  ACCESS: 434439  HIT:  6920  MISS: 427519  HIT %: 1.59286  MISS %: 98.4071  AVERAGE MISS PENALTY: 1113.56
LLC0 WRITEBACK ACCESS: 178824  HIT: 136525  MISS: 42299  HIT %: 76.346  MISS %: 23.654  AVERAGE MISS PENALTY: 0

LLC1 TOTAL     ACCESS: 828240  HIT: 151271  MISS: 676969  HIT %: 18.2642  MISS %: 81.7358  AVERAGE MISS PENALTY: 1031.21
LLC1 LOAD      ACCESS: 15366  HIT:   160  MISS: 15206  HIT %: 1.04126  MISS %: 98.9587  AVERAGE MISS PENALTY: 1029.46
LLC1 RFO       ACCESS: 145394  HIT:   715  MISS: 144679  HIT %: 0.491767  MISS %: 99.5082  AVERAGE MISS PENALTY: 1087.08
LLC1 PREFETCH  ACCESS: 488657  HIT:  7382  MISS: 481275  HIT %: 1.51067  MISS %: 98.4893  AVERAGE MISS PENALTY: 1091.19
LLC1 WRITEBACK ACCESS: 178823  HIT: 143014  MISS: 35809  HIT %: 79.9752  MISS %: 20.0248  AVERAGE MISS PENALTY: 0

LLC2 TOTAL     ACCESS: 828580  HIT: 156643  MISS: 671937  HIT %: 18.905  MISS %: 81.095  AVERAGE MISS PENALTY: 1048.5
LLC2 LOAD      ACCESS: 10698  HIT:    95  MISS: 10603  HIT %: 0.888016  MISS %: 99.112  AVERAGE MISS PENALTY: 1132.16
LLC2 RFO       ACCESS: 145387  HIT:   549  MISS: 144838  HIT %: 0.377613  MISS %: 99.6224  AVERAGE MISS PENALTY: 1057.53
LLC2 PREFETCH  ACCESS: 493694  HIT:  6975  MISS: 486719  HIT %: 1.41282  MISS %: 98.5872  AVERAGE MISS PENALTY: 1108.14
LLC2 WRITEBACK ACCESS: 178801  HIT: 149024  MISS: 29777  HIT %: 83.3463  MISS %: 16.6537  AVERAGE MISS PENALTY: 0

LLC3 TOTAL     ACCESS: 829086  HIT: 158717  MISS: 670369  HIT %: 19.1436  MISS %: 80.8564  AVERAGE MISS PENALTY: 1059.95
LLC3 LOAD      ACCESS:  8573  HIT:    70  MISS:  8503  HIT %: 0.816517  MISS %: 99.1835  AVERAGE MISS PENALTY: 1185.08
LLC3 RFO       ACCESS: 145390  HIT:   527  MISS: 144863  HIT %: 0.362473  MISS %: 99.6375  AVERAGE MISS PENALTY: 1070.94
LLC3 PREFETCH  ACCESS: 496316  HIT:  6764  MISS: 489552  HIT %: 1.36284  MISS %: 98.6372  AVERAGE MISS PENALTY: 1113.96
LLC3 WRITEBACK ACCESS: 178807  HIT: 151356  MISS: 27451  HIT %: 84.6477  MISS %: 15.3523  AVERAGE MISS PENALTY: 0

LLC4 TOTAL     ACCESS: 829562  HIT: 158555  MISS: 671007  HIT %: 19.1131  MISS %: 80.8869  AVERAGE MISS PENALTY: 1113.08
LLC4 LOAD      ACCESS:  8214  HIT:    85  MISS:  8129  HIT %: 1.03482  MISS %: 98.9652  AVERAGE MISS PENALTY: 1241.23
LLC4 RFO       ACCESS: 145391  HIT:   487  MISS: 144904  HIT %: 0.334959  MISS %: 99.665  AVERAGE MISS PENALTY: 1147.76
LLC4 PREFETCH  ACCESS: 497160  HIT:  6600  MISS: 490560  HIT %: 1.32754  MISS %: 98.6725  AVERAGE MISS PENALTY: 1162.92
LLC4 WRITEBACK ACCESS: 178797  HIT: 151383  MISS: 27414  HIT %: 84.6675  MISS %: 15.3325  AVERAGE MISS PENALTY: 0

LLC5 TOTAL     ACCESS: 829485  HIT: 158872  MISS: 670613  HIT %: 19.1531  MISS %: 80.8469  AVERAGE MISS PENALTY: 1087.5
LLC5 LOAD      ACCESS:  8689  HIT:    85  MISS:  8604  HIT %: 0.978248  MISS %: 99.0218  AVERAGE MISS PENALTY: 1218.19
LLC5 RFO       ACCESS: 145394  HIT:   489  MISS: 144905  HIT %: 0.336327  MISS %: 99.6637  AVERAGE MISS PENALTY: 1127.06
LLC5 PREFETCH  ACCESS: 496610  HIT:  6838  MISS: 489772  HIT %: 1.37694  MISS %: 98.6231  AVERAGE MISS PENALTY: 1134.18
LLC5 WRITEBACK ACCESS: 178792  HIT: 151460  MISS: 27332  HIT %: 84.713  MISS %: 15.287  AVERAGE MISS PENALTY: 0

LLC6 TOTAL     ACCESS: 829278  HIT: 157744  MISS: 671534  HIT %: 19.0218  MISS %: 80.9782  AVERAGE MISS PENALTY: 1080.15
LLC6 LOAD      ACCESS: 10246  HIT:    92  MISS: 10154  HIT %: 0.897911  MISS %: 99.1021  AVERAGE MISS PENALTY: 1374.37
LLC6 RFO       ACCESS: 145397  HIT:   505  MISS: 144892  HIT %: 0.347325  MISS %: 99.6527  AVERAGE MISS PENALTY: 1115.49
LLC6 PREFETCH  ACCESS: 494840  HIT:  6785  MISS: 488055  HIT %: 1.37115  MISS %: 98.6288  AVERAGE MISS PENALTY: 1126.46
LLC6 WRITEBACK ACCESS: 178795  HIT: 150362  MISS: 28433  HIT %: 84.0974  MISS %: 15.9026  AVERAGE MISS PENALTY: 0

LLC7 TOTAL     ACCESS: 829152  HIT: 155759  MISS: 673393  HIT %: 18.7853  MISS %: 81.2147  AVERAGE MISS PENALTY: 1063.19
LLC7 LOAD      ACCESS: 10222  HIT:    93  MISS: 10129  HIT %: 0.909802  MISS %: 99.0902  AVERAGE MISS PENALTY: 1382.63
LLC7 RFO       ACCESS: 145396  HIT:   627  MISS: 144769  HIT %: 0.431236  MISS %: 99.5688  AVERAGE MISS PENALTY: 1105.23
LLC7 PREFETCH  ACCESS: 494726  HIT:  7036  MISS: 487690  HIT %: 1.4222  MISS %: 98.5778  AVERAGE MISS PENALTY: 1111.23
LLC7 WRITEBACK ACCESS: 178808  HIT: 148003  MISS: 30805  HIT %: 82.772  MISS %: 17.228  AVERAGE MISS PENALTY: 0

Total Rob stall cycles : 	520902129
Total Load Rob Stall cycles : 	414250977
Average Rob Stall cycles : 	 31
Average Load Rob Stall cycles : 	 109

CPU 1 cumulative IPC: 0.354448 instructions: 201102693 cycles: 567369239
ITLB TOTAL     ACCESS: 35518747  HIT: 35518747  MISS:     0  HIT %:   100  MISS %:     0  AVERAGE MISS PENALTY: 0
ITLB LOAD      ACCESS: 35518747  HIT: 35518747  MISS:     0  HIT %:   100  MISS %:     0  AVERAGE MISS PENALTY: 0
ITLB RFO       ACCESS:     0  HIT:     0  MISS:     0  HIT %:     0  MISS %:     0  AVERAGE MISS PENALTY: 0
ITLB PREFETCH  ACCESS:     0  HIT:     0  MISS:     0  HIT %:     0  MISS %:     0  AVERAGE MISS PENALTY: 0
ITLB WRITEBACK ACCESS:     0  HIT:     0  MISS:     0  HIT %:     0  MISS %:     0  AVERAGE MISS PENALTY: 0

DTLB TOTAL     ACCESS: 60289455  HIT: 60099875  MISS: 189580  HIT %: 99.6856  MISS %: 0.31445  AVERAGE MISS PENALTY: 83.5454
DTLB LOAD      ACCESS: 52858289  HIT: 52717984  MISS: 140305  HIT %: 99.7346  MISS %: 0.265436  AVERAGE MISS PENALTY: 94.5909
DTLB RFO       ACCESS: 7431166  HIT: 7381891  MISS: 49275  HIT %: 99.3369  MISS %: 0.663086  AVERAGE MISS PENALTY: 52.0946
DTLB PREFETCH  ACCESS:     0  HIT:     0  MISS:     0  HIT %:     0  MISS %:     0  AVERAGE MISS PENALTY: 0
DTLB WRITEBACK ACCESS:     0  HIT:     0  MISS:     0  HIT %:     0  MISS %:     0  AVERAGE MISS PENALTY: 0

STLB TOTAL     ACCESS: 189580  HIT: 76118  MISS: 113462  HIT %: 40.1509  MISS %: 59.8491  AVERAGE MISS PENALTY: 100
STLB LOAD      ACCESS: 140305  HIT: 47512  MISS: 92793  HIT %: 33.8634  MISS %: 66.1366  AVERAGE MISS PENALTY: 100
STLB RFO       ACCESS: 49275  HIT: 28606  MISS: 20669  HIT %: 58.0538  MISS %: 41.9462  AVERAGE MISS PENALTY: 100
STLB PREFETCH  ACCESS:     0  HIT:     0  MISS:     0  HIT %:     0  MISS %:     0  AVERAGE MISS PENALTY: 0
STLB WRITEBACK ACCESS:     0  HIT:     0  MISS:     0  HIT %:     0  MISS %:     0  AVERAGE MISS PENALTY: 0

L1D TOTAL     ACCESS: 65337524  HIT: 59655910  MISS: 5681614  HIT %: 91.3042  MISS %: 8.69579  AVERAGE MISS PENALTY: 5.83912e+07
L1D LOAD      ACCESS: 47605841  HIT: 46600060  MISS: 1005781  HIT %: 97.8873  MISS %: 2.11273  AVERAGE MISS PENALTY: 3.29846e+08
L1D RFO       ACCESS: 6515732  HIT: 5352566  MISS: 1163166  HIT %: 82.1483  MISS %: 17.8517  AVERAGE MISS PENALTY: 2154.77
L1D PREFETCH  ACCESS: 11215951  HIT: 7703284  MISS: 3512667  HIT %: 68.6815  MISS %: 31.3185  AVERAGE MISS PENALTY: 387.632
L1D WRITEBACK ACCESS:     0  HIT:     0  MISS:     0  HIT %:     0  MISS %:     0  AVERAGE MISS PENALTY: 0

L1I TOTAL     ACCESS: 46712956  HIT: 46712215  MISS:   741  HIT %: 99.9984  MISS %: 0.00158628  AVERAGE MISS PENALTY: 1089.81
L1I LOAD      ACCESS: 46712956  HIT: 46712215  MISS:   741  HIT %: 99.9984  MISS %: 0.00158628  AVERAGE MISS PENALTY: 1089.81
L1I RFO       ACCESS:     0  HIT:     0  MISS:     0  HIT %:     0  MISS %:     0  AVERAGE MISS PENALTY: 0
L1I PREFETCH  ACCESS:     0  HIT:     0  MISS:     0  HIT %:     0  MISS %:     0  AVERAGE MISS PENALTY: 0
L1I WRITEBACK ACCESS:     0  HIT:     0  MISS:     0  HIT %:     0  MISS %:     0  AVERAGE MISS PENALTY: 0

L2C TOTAL     ACCESS: 10016552  HIT: 4683798  MISS: 5332754  HIT %: 46.7606  MISS %: 53.2394  AVERAGE MISS PENALTY: 5.92231e+07
L2C LOAD      ACCESS: 986001  HIT: 57151  MISS: 928850  HIT %: 5.79624  MISS %: 94.2038  AVERAGE MISS PENALTY: 3.40009e+08
L2C RFO       ACCESS: 1163164  HIT:   191  MISS: 1162973  HIT %: 0.0164207  MISS %: 99.9836  AVERAGE MISS PENALTY: 1168.97
L2C PREFETCH  ACCESS: 6428776  HIT: 3315307  MISS: 3113469  HIT %: 51.5698  MISS %: 48.4302  AVERAGE MISS PENALTY: 1101.09
L2C WRITEBACK ACCESS: 1438611  HIT: 1311149  MISS: 127462  HIT %: 91.1399  MISS %: 8.86007  AVERAGE MISS PENALTY: 0


LLC0 TOTAL     ACCESS: 828631  HIT: 146480  MISS: 682151  HIT %: 17.6773  MISS %: 82.3227  AVERAGE MISS PENALTY: 1019.18
LLC0 LOAD      ACCESS: 68990  HIT:   829  MISS: 68161  HIT %: 1.20162  MISS %: 98.7984  AVERAGE MISS PENALTY: 915.683
LLC0 RFO       ACCESS: 145372  HIT:   437  MISS: 144935  HIT %: 0.300608  MISS %: 99.6994  AVERAGE MISS PENALTY: 1065.24
LLC0 PREFETCH  ACCESS: 434860  HIT:  5853  MISS: 429007  HIT %: 1.34595  MISS %: 98.654  AVERAGE MISS PENALTY: 1115.2
LLC0 WRITEBACK ACCESS: 179409  HIT: 139361  MISS: 40048  HIT %: 77.6778  MISS %: 22.3222  AVERAGE MISS PENALTY: 0

LLC1 TOTAL     ACCESS: 829419  HIT: 152186  MISS: 677233  HIT %: 18.3485  MISS %: 81.6515  AVERAGE MISS PENALTY: 1032.22
LLC1 LOAD      ACCESS: 15538  HIT:   123  MISS: 15415  HIT %: 0.791608  MISS %: 99.2084  AVERAGE MISS PENALTY: 1025.24
LLC1 RFO       ACCESS: 145374  HIT:   323  MISS: 145051  HIT %: 0.222186  MISS %: 99.7778  AVERAGE MISS PENALTY: 1076.48
LLC1 PREFETCH  ACCESS: 489093  HIT:  6090  MISS: 483003  HIT %: 1.24516  MISS %: 98.7548  AVERAGE MISS PENALTY: 1091.3
LLC1 WRITEBACK ACCESS: 179414  HIT: 145650  MISS: 33764  HIT %: 81.181  MISS %: 18.819  AVERAGE MISS PENALTY: 0

LLC2 TOTAL     ACCESS: 829711  HIT: 157840  MISS: 671871  HIT %: 19.0235  MISS %: 80.9765  AVERAGE MISS PENALTY: 1049.42
LLC2 LOAD      ACCESS: 10799  HIT:    80  MISS: 10719  HIT %: 0.740809  MISS %: 99.2592  AVERAGE MISS PENALTY: 1149.82
LLC2 RFO       ACCESS: 145369  HIT:   254  MISS: 145115  HIT %: 0.174728  MISS %: 99.8253  AVERAGE MISS PENALTY: 1055.66
LLC2 PREFETCH  ACCESS: 494144  HIT:  5730  MISS: 488414  HIT %: 1.15958  MISS %: 98.8404  AVERAGE MISS PENALTY: 1104.71
LLC2 WRITEBACK ACCESS: 179399  HIT: 151776  MISS: 27623  HIT %: 84.6025  MISS %: 15.3975  AVERAGE MISS PENALTY: 0

LLC3 TOTAL     ACCESS: 830308  HIT: 160263  MISS: 670045  HIT %: 19.3016  MISS %: 80.6984  AVERAGE MISS PENALTY: 1061.44
LLC3 LOAD      ACCESS:  8558  HIT:    81  MISS:  8477  HIT %: 0.946483  MISS %: 99.0535  AVERAGE MISS PENALTY: 1193.48
LLC3 RFO       ACCESS: 145369  HIT:   235  MISS: 145134  HIT %: 0.161658  MISS %: 99.8383  AVERAGE MISS PENALTY: 1070.02
[...]
LLC2 TOTAL     ACCESS: 825679  HIT: 158042  MISS: 667637  HIT %: 19.1409  MISS %: 80.8591  AVERAGE MISS PENALTY: 1052.09
LLC2 LOAD      ACCESS: 10684  HIT:    71  MISS: 10613  HIT %: 0.664545  MISS %: 99.3355  AVERAGE MISS PENALTY: 1141.96
LLC2 RFO       ACCESS: 145388  HIT:   333  MISS: 145055  HIT %: 0.229042  MISS %: 99.771  AVERAGE MISS PENALTY: 1055.3
LLC2 PREFETCH  ACCESS: 491085  HIT:  5653  MISS: 485432  HIT %: 1.15112  MISS %: 98.8489  AVERAGE MISS PENALTY: 1106.68
LLC2 WRITEBACK ACCESS: 178522  HIT: 151985  MISS: 26537  HIT %: 85.1352  MISS %: 14.8648  AVERAGE MISS PENALTY: 0
LLC2 PREFETCH  REQUESTED:     0  ISSUED:     0  USEFUL:  3420  USELESS: 3887353
 USEFUL LOAD PREFETCHES:       3420 PREFETCH ISSUED TO LOWER LEVEL:  279538871  ACCURACY: 0.00122344
 TIMELY PREFETCHES:       3420 LATE PREFETCHES: 0 DROPPED PREFETCHES: 0
LLC2 AVERAGE MISS LATENCY: 1052.09 cycles
LLC3 TOTAL     ACCESS: 826263  HIT: 159924  MISS: 666339  HIT %: 19.3551  MISS %: 80.6449  AVERAGE MISS PENALTY: 1064.35
LLC3 LOAD      ACCESS:  8599  HIT:    65  MISS:  8534  HIT %: 0.755902  MISS %: 99.2441  AVERAGE MISS PENALTY: 1179.18
LLC3 RFO       ACCESS: 145390  HIT:   378  MISS: 145012  HIT %: 0.25999  MISS %: 99.74  AVERAGE MISS PENALTY: 1064.56
LLC3 PREFETCH  ACCESS: 493763  HIT:  5558  MISS: 488205  HIT %: 1.12564  MISS %: 98.8744  AVERAGE MISS PENALTY: 1115.88
LLC3 WRITEBACK ACCESS: 178511  HIT: 153923  MISS: 24588  HIT %: 86.2261  MISS %: 13.7739  AVERAGE MISS PENALTY: 0
LLC3 PREFETCH  REQUESTED:     0  ISSUED:     0  USEFUL:  3207  USELESS: 3910303
 USEFUL LOAD PREFETCHES:       3207 PREFETCH ISSUED TO LOWER LEVEL:  273628368  ACCURACY: 0.00117203
 TIMELY PREFETCHES:       3207 LATE PREFETCHES: 0 DROPPED PREFETCHES: 0
LLC3 AVERAGE MISS LATENCY: 1064.35 cycles
LLC4 TOTAL     ACCESS: 826687  HIT: 159646  MISS: 667041  HIT %: 19.3115  MISS %: 80.6885  AVERAGE MISS PENALTY: 1113.22
LLC4 LOAD      ACCESS:  8314  HIT:    83  MISS:  8231  HIT %: 0.998316  MISS %: 99.0017  AVERAGE MISS PENALTY: 1229.02
LLC4 RFO       ACCESS: 145390  HIT:   299  MISS: 145091  HIT %: 0.205654  MISS %: 99.7943  AVERAGE MISS PENALTY: 1133.92
LLC4 PREFETCH  ACCESS: 494472  HIT:  5449  MISS: 489023  HIT %: 1.10198  MISS %: 98.898  AVERAGE MISS PENALTY: 1161.34
LLC4 WRITEBACK ACCESS: 178511  HIT: 153815  MISS: 24696  HIT %: 86.1656  MISS %: 13.8344  AVERAGE MISS PENALTY: 0
LLC4 PREFETCH  REQUESTED:     0  ISSUED:     0  USEFUL:  3084  USELESS: 3917083
 USEFUL LOAD PREFETCHES:       3084 PREFETCH ISSUED TO LOWER LEVEL:  376034532  ACCURACY: 0.000820137
 TIMELY PREFETCHES:       3084 LATE PREFETCHES: 0 DROPPED PREFETCHES: 0
LLC4 AVERAGE MISS LATENCY: 1113.22 cycles
LLC5 TOTAL     ACCESS: 826732  HIT: 159965  MISS: 666767  HIT %: 19.3491  MISS %: 80.6509  AVERAGE MISS PENALTY: 1090.66
LLC5 LOAD      ACCESS:  8664  HIT:    84  MISS:  8580  HIT %: 0.969529  MISS %: 99.0305  AVERAGE MISS PENALTY: 1221.81
LLC5 RFO       ACCESS: 145392  HIT:   317  MISS: 145075  HIT %: 0.218031  MISS %: 99.782  AVERAGE MISS PENALTY: 1115.49
LLC5 PREFETCH  ACCESS: 494174  HIT:  5644  MISS: 488530  HIT %: 1.14211  MISS %: 98.8579  AVERAGE MISS PENALTY: 1135.86
LLC5 WRITEBACK ACCESS: 178502  HIT: 153920  MISS: 24582  HIT %: 86.2287  MISS %: 13.7713  AVERAGE MISS PENALTY: 0
LLC5 PREFETCH  REQUESTED:     0  ISSUED:     0  USEFUL:  3158  USELESS: 3912359
 USEFUL LOAD PREFETCHES:       3158 PREFETCH ISSUED TO LOWER LEVEL:  364990939  ACCURACY: 0.000865227
 TIMELY PREFETCHES:       3158 LATE PREFETCHES: 0 DROPPED PREFETCHES: 0
LLC5 AVERAGE MISS LATENCY: 1090.66 cycles
LLC6 TOTAL     ACCESS: 826682  HIT: 159275  MISS: 667407  HIT %: 19.2668  MISS %: 80.7332  AVERAGE MISS PENALTY: 1084.06
LLC6 LOAD      ACCESS: 10300  HIT:    79  MISS: 10221  HIT %: 0.76699  MISS %: 99.233  AVERAGE MISS PENALTY: 1333.62
LLC6 RFO       ACCESS: 145396  HIT:   331  MISS: 145065  HIT %: 0.227654  MISS %: 99.7723  AVERAGE MISS PENALTY: 1102.77
LLC6 PREFETCH  ACCESS: 492481  HIT:  5744  MISS: 486737  HIT %: 1.16634  MISS %: 98.8337  AVERAGE MISS PENALTY: 1129.78
LLC6 WRITEBACK ACCESS: 178505  HIT: 153121  MISS: 25384  HIT %: 85.7797  MISS %: 14.2203  AVERAGE MISS PENALTY: 0
LLC6 PREFETCH  REQUESTED:     0  ISSUED:     0  USEFUL:  3409  USELESS: 3897582
 USEFUL LOAD PREFETCHES:       3409 PREFETCH ISSUED TO LOWER LEVEL:  536911978  ACCURACY: 0.000634927
 TIMELY PREFETCHES:       3409 LATE PREFETCHES: 0 DROPPED PREFETCHES: 0
LLC6 AVERAGE MISS LATENCY: 1084.06 cycles
LLC7 TOTAL     ACCESS: 826613  HIT: 157942  MISS: 668671  HIT %: 19.1071  MISS %: 80.8929  AVERAGE MISS PENALTY: 1068.86
LLC7 LOAD      ACCESS: 10305  HIT:    98  MISS: 10207  HIT %: 0.950995  MISS %: 99.049  AVERAGE MISS PENALTY: 1351.28
LLC7 RFO       ACCESS: 145392  HIT:   369  MISS: 145023  HIT %: 0.253797  MISS %: 99.7462  AVERAGE MISS PENALTY: 1097.05
LLC7 PREFETCH  ACCESS: 492406  HIT:  6115  MISS: 486291  HIT %: 1.24186  MISS %: 98.7581  AVERAGE MISS PENALTY: 1114.2
LLC7 WRITEBACK ACCESS: 178510  HIT: 151360  MISS: 27150  HIT %: 84.7908  MISS %: 15.2092  AVERAGE MISS PENALTY: 0
LLC7 PREFETCH  REQUESTED:     0  ISSUED:     0  USEFUL:  3720  USELESS: 3894437
 USEFUL LOAD PREFETCHES:       3720 PREFETCH ISSUED TO LOWER LEVEL:  535065185  ACCURACY: 0.000695242
 TIMELY PREFETCHES:       3720 LATE PREFETCHES: 0 DROPPED PREFETCHES: 0
LLC7 AVERAGE MISS LATENCY: 1068.86 cycles
ROI Average ROB Stall Cycles:	31.1414
ROI Total ROB Stalls Cycles:	517338493
ROI TOTAL ROB counter      :	16612560
ROI Average Load ROB Stall Cycles:	109.341
ROI Total Load ROB Stalls Cycle  :	411321005
ROI Total Load ROB stalls Counter:	3761806
Major fault: 0 Minor fault: 55264

CPU 7 cumulative IPC: 0.352978 instructions: 200000001 cycles: 566607987
ITLB TOTAL     ACCESS: 35313400  HIT: 35313400  MISS:     0  HIT %:   100  MISS %:     0  AVERAGE MISS PENALTY: 0
ITLB LOAD      ACCESS: 35313400  HIT: 35313400  MISS:     0  HIT %:   100  MISS %:     0  AVERAGE MISS PENALTY: 0
ITLB RFO       ACCESS:     0  HIT:     0  MISS:     0  HIT %:     0  MISS %:     0  AVERAGE MISS PENALTY: 0
ITLB PREFETCH  ACCESS:     0  HIT:     0  MISS:     0  HIT %:     0  MISS %:     0  AVERAGE MISS PENALTY: 0
ITLB WRITEBACK ACCESS:     0  HIT:     0  MISS:     0  HIT %:     0  MISS %:     0  AVERAGE MISS PENALTY: 0
ITLB PREFETCH  REQUESTED:     0  ISSUED:     0  USEFUL:     0  USELESS:     0
 USEFUL LOAD PREFETCHES:          0 PREFETCH ISSUED TO LOWER LEVEL:          0  ACCURACY: -nan
 TIMELY PREFETCHES:          0 LATE PREFETCHES: 0 DROPPED PREFETCHES: 0
ITLB AVERAGE MISS LATENCY: -nan cycles
DTLB TOTAL     ACCESS: 60077223  HIT: 59888123  MISS: 189100  HIT %: 99.6852  MISS %: 0.314762  AVERAGE MISS PENALTY: 83.387
DTLB LOAD      ACCESS: 52665980  HIT: 52526164  MISS: 139816  HIT %: 99.7345  MISS %: 0.265477  AVERAGE MISS PENALTY: 94.4335
DTLB RFO       ACCESS: 7411243  HIT: 7361959  MISS: 49284  HIT %: 99.335  MISS %: 0.66499  AVERAGE MISS PENALTY: 52.0486
DTLB PREFETCH  ACCESS:     0  HIT:     0  MISS:     0  HIT %:     0  MISS %:     0  AVERAGE MISS PENALTY: 0
DTLB WRITEBACK ACCESS:     0  HIT:     0  MISS:     0  HIT %:     0  MISS %:     0  AVERAGE MISS PENALTY: 0
DTLB PREFETCH  REQUESTED:     0  ISSUED:     0  USEFUL:     0  USELESS:     0
 USEFUL LOAD PREFETCHES:          0 PREFETCH ISSUED TO LOWER LEVEL:          0  ACCURACY: -nan
 TIMELY PREFETCHES:          0 LATE PREFETCHES: 0 DROPPED PREFETCHES: 0
DTLB AVERAGE MISS LATENCY: 83.387 cycles
STLB TOTAL     ACCESS: 189100  HIT: 76164  MISS: 112936  HIT %: 40.2771  MISS %: 59.7229  AVERAGE MISS PENALTY: 100
STLB LOAD      ACCESS: 139816  HIT: 47549  MISS: 92267  HIT %: 34.0083  MISS %: 65.9917  AVERAGE MISS PENALTY: 100
STLB RFO       ACCESS: 49284  HIT: 28615  MISS: 20669  HIT %: 58.0614  MISS %: 41.9386  AVERAGE MISS PENALTY: 100
STLB PREFETCH  ACCESS:     0  HIT:     0  MISS:     0  HIT %:     0  MISS %:     0  AVERAGE MISS PENALTY: 0
STLB WRITEBACK ACCESS:     0  HIT:     0  MISS:     0  HIT %:     0  MISS %:     0  AVERAGE MISS PENALTY: 0
STLB PREFETCH  REQUESTED:     0  ISSUED:     0  USEFUL:     0  USELESS:     0
 USEFUL LOAD PREFETCHES:          0 PREFETCH ISSUED TO LOWER LEVEL:          0  ACCURACY: -nan
 TIMELY PREFETCHES:          0 LATE PREFETCHES: 0 DROPPED PREFETCHES: 0
STLB AVERAGE MISS LATENCY: 100 cycles
L1D TOTAL     ACCESS: 65091406  HIT: 59433560  MISS: 5657846  HIT %: 91.3078  MISS %: 8.69216  AVERAGE MISS PENALTY: 5.80314e+07
L1D LOAD      ACCESS: 47466427  HIT: 46469383  MISS: 997044  HIT %: 97.8995  MISS %: 2.10052  AVERAGE MISS PENALTY: 3.29302e+08
L1D RFO       ACCESS: 6473208  HIT: 5310045  MISS: 1163163  HIT %: 82.0311  MISS %: 17.9689  AVERAGE MISS PENALTY: 2039.4
L1D PREFETCH  ACCESS: 11151771  HIT: 7654132  MISS: 3497639  HIT %: 68.636  MISS %: 31.364  AVERAGE MISS PENALTY: 387.377
L1D WRITEBACK ACCESS:     0  HIT:     0  MISS:     0  HIT %:     0  MISS %:     0  AVERAGE MISS PENALTY: 0
L1D PREFETCH  REQUESTED: 15980495  ISSUED: 15644554  USEFUL: 3415361  USELESS: 82287
 USEFUL LOAD PREFETCHES:    3415361 PREFETCH ISSUED TO LOWER LEVEL:   52543218  ACCURACY: 6.5001
 TIMELY PREFETCHES:    3415361 LATE PREFETCHES: 933334 DROPPED PREFETCHES: 335941
L1D AVERAGE MISS LATENCY: 785.537 cycles
L1I TOTAL     ACCESS: 46479489  HIT: 46478755  MISS:   734  HIT %: 99.9984  MISS %: 0.00157919  AVERAGE MISS PENALTY: 1165.15
L1I LOAD      ACCESS: 46479489  HIT: 46478755  MISS:   734  HIT %: 99.9984  MISS %: 0.00157919  AVERAGE MISS PENALTY: 1165.15
L1I RFO       ACCESS:     0  HIT:     0  MISS:     0  HIT %:     0  MISS %:     0  AVERAGE MISS PENALTY: 0
L1I PREFETCH  ACCESS:     0  HIT:     0  MISS:     0  HIT %:     0  MISS %:     0  AVERAGE MISS PENALTY: 0
L1I WRITEBACK ACCESS:     0  HIT:     0  MISS:     0  HIT %:     0  MISS %:     0  AVERAGE MISS PENALTY: 0
L1I PREFETCH  REQUESTED:     0  ISSUED:     0  USEFUL:     0  USELESS:     0
 USEFUL LOAD PREFETCHES:          0 PREFETCH ISSUED TO LOWER LEVEL:          0  ACCURACY: -nan
 TIMELY PREFETCHES:          0 LATE PREFETCHES: 0 DROPPED PREFETCHES: 0
L1I AVERAGE MISS LATENCY: 1165.15 cycles
L2C TOTAL     ACCESS: 9973549  HIT: 4741383  MISS: 5232166  HIT %: 47.5396  MISS %: 52.4604  AVERAGE MISS PENALTY: 5.9738e+07
L2C LOAD      ACCESS: 977770  HIT: 57061  MISS: 920709  HIT %: 5.83583  MISS %: 94.1642  AVERAGE MISS PENALTY: 3.39471e+08
L2C RFO       ACCESS: 1163160  HIT:    85  MISS: 1163075  HIT %: 0.00730768  MISS %: 99.9927  AVERAGE MISS PENALTY: 1171.48
L2C PREFETCH  ACCESS: 6400883  HIT: 3303509  MISS: 3097374  HIT %: 51.6102  MISS %: 48.3898  AVERAGE MISS PENALTY: 1134.84
L2C WRITEBACK ACCESS: 1431736  HIT: 1380728  MISS: 51008  HIT %: 96.4373  MISS %: 3.56267  AVERAGE MISS PENALTY: 0
L2C PREFETCH  REQUESTED: 6949217  ISSUED: 6949167  USEFUL: 20084  USELESS: 3076094
 USEFUL LOAD PREFETCHES:      20084 PREFETCH ISSUED TO LOWER LEVEL:    8396966  ACCURACY: 0.239182
 TIMELY PREFETCHES:      20084 LATE PREFETCHES: 849643 DROPPED PREFETCHES: 50
L2C AVERAGE MISS LATENCY: 1047.6 cycles
LLC0 TOTAL     ACCESS: 824603  HIT: 148069  MISS: 676534  HIT %: 17.9564  MISS %: 82.0436  AVERAGE MISS PENALTY: 1025.03
LLC0 LOAD      ACCESS: 68339  HIT:   641  MISS: 67698  HIT %: 0.937971  MISS %: 99.062  AVERAGE MISS PENALTY: 918.395
LLC0 RFO       ACCESS: 145384  HIT:   826  MISS: 144558  HIT %: 0.568151  MISS %: 99.4318  AVERAGE MISS PENALTY: 1070.81
LLC0 PREFETCH  ACCESS: 432435  HIT:  6290  MISS: 426145  HIT %: 1.45455  MISS %: 98.5454  AVERAGE MISS PENALTY: 1118.16
LLC0 WRITEBACK ACCESS: 178445  HIT: 140312  MISS: 38133  HIT %: 78.6304  MISS %: 21.3696  AVERAGE MISS PENALTY: 0
LLC0 PREFETCH  REQUESTED:     0  ISSUED:     0  USEFUL:  4603  USELESS: 3413639
 USEFUL LOAD PREFETCHES:       4603 PREFETCH ISSUED TO LOWER LEVEL:  197846933  ACCURACY: 0.00232655
 TIMELY PREFETCHES:       4603 LATE PREFETCHES: 0 DROPPED PREFETCHES: 0
LLC0 AVERAGE MISS LATENCY: 1025.03 cycles
Deadblocks : 538481 Deadblock percentage : 795.416

LLC1 TOTAL     ACCESS: 824921  HIT: 153612  MISS: 671309  HIT %: 18.6214  MISS %: 81.3786  AVERAGE MISS PENALTY: 1039.42
LLC1 LOAD      ACCESS: 15431  HIT:   143  MISS: 15288  HIT %: 0.926706  MISS %: 99.0733  AVERAGE MISS PENALTY: 1029.55
LLC1 RFO       ACCESS: 145386  HIT:   705  MISS: 144681  HIT %: 0.484916  MISS %: 99.5151  AVERAGE MISS PENALTY: 1082.1
LLC1 PREFETCH  ACCESS: 485669  HIT:  6230  MISS: 479439  HIT %: 1.28277  MISS %: 98.7172  AVERAGE MISS PENALTY: 1096.02
LLC1 WRITEBACK ACCESS: 178435  HIT: 146534  MISS: 31901  HIT %: 82.1218  MISS %: 17.8782  AVERAGE MISS PENALTY: 0
LLC1 PREFETCH  REQUESTED:     0  ISSUED:     0  USEFUL:  4390  USELESS: 3842233
 USEFUL LOAD PREFETCHES:       4390 PREFETCH ISSUED TO LOWER LEVEL:  213424475  ACCURACY: 0.00205693
 TIMELY PREFETCHES:       4390 LATE PREFETCHES: 0 DROPPED PREFETCHES: 0
LLC1 AVERAGE MISS LATENCY: 1039.42 cycles
LLC2 TOTAL     ACCESS: 825370  HIT: 158744  MISS: 666626  HIT %: 19.2331  MISS %: 80.7669  AVERAGE MISS PENALTY: 1056.29
LLC2 LOAD      ACCESS: 10714  HIT:   102  MISS: 10612  HIT %: 0.952025  MISS %: 99.048  AVERAGE MISS PENALTY: 1136.36
LLC2 RFO       ACCESS: 145382  HIT:   538  MISS: 144844  HIT %: 0.37006  MISS %: 99.6299  AVERAGE MISS PENALTY: 1064.15
LLC2 PREFETCH  ACCESS: 490852  HIT:  5786  MISS: 485066  HIT %: 1.17877  MISS %: 98.8212  AVERAGE MISS PENALTY: 1109.04
LLC2 WRITEBACK ACCESS: 178422  HIT: 152318  MISS: 26104  HIT %: 85.3695  MISS %: 14.6305  AVERAGE MISS PENALTY: 0
LLC2 PREFETCH  REQUESTED:     0  ISSUED:     0  USEFUL:  3420  USELESS: 3887353
 USEFUL LOAD PREFETCHES:       3420 PREFETCH ISSUED TO LOWER LEVEL:  279538871  ACCURACY: 0.00122344
 TIMELY PREFETCHES:       3420 LATE PREFETCHES: 0 DROPPED PREFETCHES: 0
LLC2 AVERAGE MISS LATENCY: 1056.29 cycles
LLC3 TOTAL     ACCESS: 826270  HIT: 160349  MISS: 665921  HIT %: 19.4064  MISS %: 80.5936  AVERAGE MISS PENALTY: 1220.83
LLC3 LOAD      ACCESS:  8560  HIT:   109  MISS:  8451  HIT %: 1.27336  MISS %: 98.7266  AVERAGE MISS PENALTY: 1188.91
LLC3 RFO       ACCESS: 145383  HIT:   511  MISS: 144872  HIT %: 0.351485  MISS %: 99.6485  AVERAGE MISS PENALTY: 1075.05
LLC3 PREFETCH  ACCESS: 493911  HIT:  5757  MISS: 488154  HIT %: 1.16559  MISS %: 98.8344  AVERAGE MISS PENALTY: 1325.78
LLC3 WRITEBACK ACCESS: 178416  HIT: 153972  MISS: 24444  HIT %: 86.2994  MISS %: 13.7006  AVERAGE MISS PENALTY: 0
LLC3 PREFETCH  REQUESTED:     0  ISSUED:     0  USEFUL:  3207  USELESS: 3910303
 USEFUL LOAD PREFETCHES:       3207 PREFETCH ISSUED TO LOWER LEVEL:  273628368  ACCURACY: 0.00117203
 TIMELY PREFETCHES:       3207 LATE PREFETCHES: 0 DROPPED PREFETCHES: 0
LLC3 AVERAGE MISS LATENCY: 1067.72 cycles
LLC4 TOTAL     ACCESS: 826883  HIT: 160185  MISS: 666698  HIT %: 19.3721  MISS %: 80.6279  AVERAGE MISS PENALTY: 1119.19
LLC4 LOAD      ACCESS:  8317  HIT:   138  MISS:  8179  HIT %: 1.65925  MISS %: 98.3407  AVERAGE MISS PENALTY: 1241.26
LLC4 RFO       ACCESS: 145382  HIT:   507  MISS: 144875  HIT %: 0.348736  MISS %: 99.6513  AVERAGE MISS PENALTY: 1145.84
LLC4 PREFETCH  ACCESS: 494737  HIT:  5785  MISS: 488952  HIT %: 1.16931  MISS %: 98.8307  AVERAGE MISS PENALTY: 1165.77
LLC4 WRITEBACK ACCESS: 178447  HIT: 153755  MISS: 24692  HIT %: 86.1628  MISS %: 13.8372  AVERAGE MISS PENALTY: 0
LLC4 PREFETCH  REQUESTED:     0  ISSUED:     0  USEFUL:  3084  USELESS: 3917083
 USEFUL LOAD PREFETCHES:       3084 PREFETCH ISSUED TO LOWER LEVEL:  376034532  ACCURACY: 0.000820137
 TIMELY PREFETCHES:       3084 LATE PREFETCHES: 0 DROPPED PREFETCHES: 0
LLC4 AVERAGE MISS LATENCY: 1119.19 cycles
LLC5 TOTAL     ACCESS: 826854  HIT: 160826  MISS: 666028  HIT %: 19.4504  MISS %: 80.5496  AVERAGE MISS PENALTY: 1096.27
LLC5 LOAD      ACCESS:  8678  HIT:   109  MISS:  8569  HIT %: 1.25605  MISS %: 98.744  AVERAGE MISS PENALTY: 1184.75
LLC5 RFO       ACCESS: 145385  HIT:   503  MISS: 144882  HIT %: 0.345978  MISS %: 99.654  AVERAGE MISS PENALTY: 1126.8
LLC5 PREFETCH  ACCESS: 494381  HIT:  6137  MISS: 488244  HIT %: 1.24135  MISS %: 98.7586  AVERAGE MISS PENALTY: 1140.3
LLC5 WRITEBACK ACCESS: 178410  HIT: 154077  MISS: 24333  HIT %: 86.3612  MISS %: 13.6388  AVERAGE MISS PENALTY: 0
LLC5 PREFETCH  REQUESTED:     0  ISSUED:     0  USEFUL:  3158  USELESS: 3912359
 USEFUL LOAD PREFETCHES:       3158 PREFETCH ISSUED TO LOWER LEVEL:  364990939  ACCURACY: 0.000865227
 TIMELY PREFETCHES:       3158 LATE PREFETCHES: 0 DROPPED PREFETCHES: 0
LLC5 AVERAGE MISS LATENCY: 1096.27 cycles
LLC6 TOTAL     ACCESS: 826848  HIT: 160763  MISS: 666085  HIT %: 19.4429  MISS %: 80.5571  AVERAGE MISS PENALTY: 1088.32
LLC6 LOAD      ACCESS: 10278  HIT:   154  MISS: 10124  HIT %: 1.49835  MISS %: 98.5017  AVERAGE MISS PENALTY: 1382.45
LLC6 RFO       ACCESS: 145390  HIT:   572  MISS: 144818  HIT %: 0.393425  MISS %: 99.6066  AVERAGE MISS PENALTY: 1114.01
LLC6 PREFETCH  ACCESS: 492741  HIT:  6391  MISS: 486350  HIT %: 1.29703  MISS %: 98.703  AVERAGE MISS PENALTY: 1130.02
LLC6 WRITEBACK ACCESS: 178439  HIT: 153646  MISS: 24793  HIT %: 86.1056  MISS %: 13.8944  AVERAGE MISS PENALTY: 0
LLC6 PREFETCH  REQUESTED:     0  ISSUED:     0  USEFUL:  3409  USELESS: 3897582
 USEFUL LOAD PREFETCHES:       3409 PREFETCH ISSUED TO LOWER LEVEL:  536911978  ACCURACY: 0.000634927
 TIMELY PREFETCHES:       3409 LATE PREFETCHES: 0 DROPPED PREFETCHES: 0
LLC6 AVERAGE MISS LATENCY: 1088.32 cycles
LLC7 TOTAL     ACCESS: 826865  HIT: 159207  MISS: 667658  HIT %: 19.2543  MISS %: 80.7457  AVERAGE MISS PENALTY: 1071.46
LLC7 LOAD      ACCESS: 10334  HIT:   141  MISS: 10193  HIT %: 1.36443  MISS %: 98.6356  AVERAGE MISS PENALTY: 1362.86
LLC7 RFO       ACCESS: 145383  HIT:   599  MISS: 144784  HIT %: 0.412015  MISS %: 99.588  AVERAGE MISS PENALTY: 1102.5
LLC7 PREFETCH  ACCESS: 492705  HIT:  6649  MISS: 486056  HIT %: 1.34949  MISS %: 98.6505  AVERAGE MISS PENALTY: 1114.8
LLC7 WRITEBACK ACCESS: 178443  HIT: 151818  MISS: 26625  HIT %: 85.0793  MISS %: 14.9207  AVERAGE MISS PENALTY: 0
LLC7 PREFETCH  REQUESTED:     0  ISSUED:     0  USEFUL:  3720  USELESS: 3894437
 USEFUL LOAD PREFETCHES:       3720 PREFETCH ISSUED TO LOWER LEVEL:  535065185  ACCURACY: 0.000695242
 TIMELY PREFETCHES:       3720 LATE PREFETCHES: 0 DROPPED PREFETCHES: 0
LLC7 AVERAGE MISS LATENCY: 1071.46 cycles
ROI Average ROB Stall Cycles:	31.3128
ROI Total ROB Stalls Cycles:	520281997
ROI TOTAL ROB counter      :	16615636
ROI Average Load ROB Stall Cycles:	109.996
ROI Total Load ROB Stalls Cycle  :	413838010
ROI Total Load ROB stalls Counter:	3762304
Major fault: 0 Minor fault: 55264








Interconnect Stats 
LINK 0 BW : 0LINK 1 BW : 0LINK 2 BW : 0LINK 3 BW : 0LINK 4 BW : 0LINK 5 BW : 0LINK 6 BW : 0LINK 7 BW : 0
DRAM Statistics
 CHANNEL 0
 RQ ROW_BUFFER_HIT: 6499452  ROW_BUFFER_MISS: 14084904
 DBUS_CONGESTED: 24429035
 WQ ROW_BUFFER_HIT: 468592  ROW_BUFFER_MISS: 5272337  FULL:     0

 CHANNEL 1
 RQ ROW_BUFFER_HIT: 6519289  ROW_BUFFER_MISS: 14076315
 DBUS_CONGESTED: 24429035
 WQ ROW_BUFFER_HIT: 469415  ROW_BUFFER_MISS: 5272890  FULL:     0

 AVG_CONGESTED_CYCLE: 6
DRAM PAGES: 2097152
Allocated PAGES: 442112
L2C destructor called
L1D destructor called
L1I destructor called
STLB destructor called
DTLB destructor called
ITLB destructor called
L2C destructor called
L1D destructor called
L1I destructor called
STLB destructor called
DTLB destructor called
ITLB destructor called
L2C destructor called
L1D destructor called
L1I destructor called
STLB destructor called
DTLB destructor called
ITLB destructor called
L2C destructor called
L1D destructor called
L1I destructor called
STLB destructor called
DTLB destructor called
ITLB destructor called
L2C destructor called
L1D destructor called
L1I destructor called
STLB destructor called
DTLB destructor called
ITLB destructor called
L2C destructor called
L1D destructor called
L1I destructor called
STLB destructor called
DTLB destructor called
ITLB destructor called
L2C destructor called
L1D destructor called
L1I destructor called
STLB destructor called
DTLB destructor called
ITLB destructor called
L2C destructor called
L1D destructor called
L1I destructor called
STLB destructor called
DTLB destructor called
ITLB destructor called
