
*** ChampSim Multicore Out-of-Order Simulator ***

Warmup Instructions: 200000000
Simulation Instructions: 200000000
Number of CPUs: 8
threads:1

L1I Configuration:
L1I_SET:64
L1I_WAY:8
L1I_RQ_SIZE:64
L1I_WQ_SIZE:64
L1I_PQ_SIZE:8
L1I_MSHR_SIZE:8

L1D Configuration:
L1D_SET:64
L1D_WAY:12
L1D_RQ_SIZE:64
L1D_WQ_SIZE:64
L1D_PQ_SIZE:8
L1D_MSHR_SIZE:16

L2C Configuration:
L2C_SET:1024
L2C_WAY:8
L2C_RQ_SIZE:32
L2C_WQ_SIZE:32
L2C_PQ_SIZE:16
L2C_MSHR_SIZE:32

LLC Configuration:
LLC_SET:2048
LLC_WAY:16
LLC SLICES:8
LLC_RQ_SIZE:64
LLC_WQ_SIZE:64
LLC_PQ_SIZE:32
LLC_MSHR_SIZE:64

Interconnect OFF
Attacker deprioritize is: OFF
Off-chip DRAM Size: 8192 MB Channels: 2 Width: 64-bit Data Rate: 3200 MT/s
PAGE SIZE in KB: 4.000000 
PAGE SIZE in MB: 0.003906 
PAGE offset in bits: 12 
CEASER-S_LLC:0
MIRAGE : 0
CEASER_LATENCY:3
REMAP : OFF
Partitions : 1
Multi-Step : OFF
BFS : OFF

CPU 0 runs /home/anubhav/spec_2017/654.roms_s-294B.champsimtrace.xz
CPU 1 runs /home/anubhav/spec_2017/654.roms_s-294B.champsimtrace.xz
CPU 2 runs /home/anubhav/spec_2017/654.roms_s-294B.champsimtrace.xz
CPU 3 runs /home/anubhav/spec_2017/654.roms_s-294B.champsimtrace.xz
CPU 4 runs /home/anubhav/spec_2017/654.roms_s-294B.champsimtrace.xz
CPU 5 runs /home/anubhav/spec_2017/654.roms_s-294B.champsimtrace.xz
CPU 6 runs /home/anubhav/spec_2017/654.roms_s-294B.champsimtrace.xz
CPU 7 runs /home/anubhav/spec_2017/654.roms_s-294B.champsimtrace.xz
CPU 0 Bimodal branch predictor
Initialize Hawkeye state
Initialize Hawkeye state
Initialize Hawkeye state
Initialize Hawkeye state
Initialize Hawkeye state
Initialize Hawkeye state
Initialize Hawkeye state
Initialize Hawkeye state
CPU 1 Bimodal branch predictor
Initialize Hawkeye state
Initialize Hawkeye state
Initialize Hawkeye state
Initialize Hawkeye state
Initialize Hawkeye state
Initialize Hawkeye state
Initialize Hawkeye state
Initialize Hawkeye state
CPU 2 Bimodal branch predictor
Initialize Hawkeye state
Initialize Hawkeye state
Initialize Hawkeye state
Initialize Hawkeye state
Initialize Hawkeye state
Initialize Hawkeye state
Initialize Hawkeye state
Initialize Hawkeye state
CPU 3 Bimodal branch predictor
Initialize Hawkeye state
Initialize Hawkeye state
Initialize Hawkeye state
Initialize Hawkeye state
Initialize Hawkeye state
Initialize Hawkeye state
Initialize Hawkeye state
Initialize Hawkeye state
CPU 4 Bimodal branch predictor
Initialize Hawkeye state
Initialize Hawkeye state
Initialize Hawkeye state
Initialize Hawkeye state
Initialize Hawkeye state
Initialize Hawkeye state
Initialize Hawkeye state
Initialize Hawkeye state
CPU 5 Bimodal branch predictor
Initialize Hawkeye state
Initialize Hawkeye state
Initialize Hawkeye state
Initialize Hawkeye state
Initialize Hawkeye state
Initialize Hawkeye state
Initialize Hawkeye state
Initialize Hawkeye state
CPU 6 Bimodal branch predictor
Initialize Hawkeye state
Initialize Hawkeye state
Initialize Hawkeye state
Initialize Hawkeye state
Initialize Hawkeye state
Initialize Hawkeye state
Initialize Hawkeye state
Initialize Hawkeye state
CPU 7 Bimodal branch predictor
Initialize Hawkeye state
Initialize Hawkeye state
Initialize Hawkeye state
Initialize Hawkeye state
Initialize Hawkeye state
Initialize Hawkeye state
Initialize Hawkeye state
Initialize Hawkeye state
Heartbeat CPU 0 instructions: 10000000 cycles: 4652572 heartbeat IPC: 2.14935 cumulative IPC: 2.14935 (Simulation time: 3 hr 54 min 22 sec) 
 Total Blocks : 262144 Invalid Blocks : 10329
Heartbeat CPU 1 instructions: 10000000 cycles: 4652578 heartbeat IPC: 2.14935 cumulative IPC: 2.14935 (Simulation time: 3 hr 54 min 31 sec) 
 Total Blocks : 262144 Invalid Blocks : 10329
Heartbeat CPU 2 instructions: 10000000 cycles: 4652602 heartbeat IPC: 2.14933 cumulative IPC: 2.14933 (Simulation time: 3 hr 54 min 32 sec) 
 Total Blocks : 262144 Invalid Blocks : 10329
Heartbeat CPU 3 instructions: 10000000 cycles: 4652623 heartbeat IPC: 2.14933 cumulative IPC: 2.14933 (Simulation time: 3 hr 54 min 32 sec) 
 Total Blocks : 262144 Invalid Blocks : 10329
Heartbeat CPU 4 instructions: 10000000 cycles: 4652674 heartbeat IPC: 2.1493 cumulative IPC: 2.1493 (Simulation time: 3 hr 54 min 33 sec) 
 Total Blocks : 262144 Invalid Blocks : 10329
Heartbeat CPU 5 instructions: 10000000 cycles: 4652675 heartbeat IPC: 2.1493 cumulative IPC: 2.1493 (Simulation time: 3 hr 54 min 33 sec) 
 Total Blocks : 262144 Invalid Blocks : 10329
Heartbeat CPU 6 instructions: 10000000 cycles: 4652679 heartbeat IPC: 2.1493 cumulative IPC: 2.1493 (Simulation time: 3 hr 54 min 33 sec) 
 Total Blocks : 262144 Invalid Blocks : 10329
Heartbeat CPU 7 instructions: 10000000 cycles: 4652695 heartbeat IPC: 2.14929 cumulative IPC: 2.14929 (Simulation time: 3 hr 54 min 33 sec) 
 Total Blocks : 262144 Invalid Blocks : 10329
Heartbeat CPU 0 instructions: 20000003 cycles: 9304826 heartbeat IPC: 2.1495 cumulative IPC: 2.14942 (Simulation time: 7 hr 58 min 59 sec) 
 Total Blocks : 262144 Invalid Blocks : 546
Heartbeat CPU 1 instructions: 20000003 cycles: 9304835 heartbeat IPC: 2.14949 cumulative IPC: 2.14942 (Simulation time: 7 hr 59 min 5 sec) 
 Total Blocks : 262144 Invalid Blocks : 546
Heartbeat CPU 2 instructions: 20000003 cycles: 9304872 heartbeat IPC: 2.14949 cumulative IPC: 2.14941 (Simulation time: 7 hr 59 min 5 sec) 
 Total Blocks : 262144 Invalid Blocks : 546
Heartbeat CPU 3 instructions: 20000003 cycles: 9304935 heartbeat IPC: 2.14947 cumulative IPC: 2.1494 (Simulation time: 7 hr 59 min 6 sec) 
 Total Blocks : 262144 Invalid Blocks : 546
Heartbeat CPU 5 instructions: 20000003 cycles: 9304991 heartbeat IPC: 2.14947 cumulative IPC: 2.14938 (Simulation time: 7 hr 59 min 6 sec) 
 Total Blocks : 262144 Invalid Blocks : 546
Heartbeat CPU 6 instructions: 20000003 cycles: 9305006 heartbeat IPC: 2.14946 cumulative IPC: 2.14938 (Simulation time: 7 hr 59 min 6 sec) 
 Total Blocks : 262144 Invalid Blocks : 546
Heartbeat CPU 4 instructions: 20000003 cycles: 9305012 heartbeat IPC: 2.14946 cumulative IPC: 2.14938 (Simulation time: 7 hr 59 min 7 sec) 
 Total Blocks : 262144 Invalid Blocks : 546
Heartbeat CPU 7 instructions: 20000003 cycles: 9305041 heartbeat IPC: 2.14945 cumulative IPC: 2.14937 (Simulation time: 7 hr 59 min 7 sec) 
 Total Blocks : 262144 Invalid Blocks : 546
Heartbeat CPU 0 instructions: 30000002 cycles: 13957082 heartbeat IPC: 2.14949 cumulative IPC: 2.14945 (Simulation time: 12 hr 5 min 7 sec) 
 Total Blocks : 262144 Invalid Blocks : 32
Heartbeat CPU 1 instructions: 30000002 cycles: 13957096 heartbeat IPC: 2.14949 cumulative IPC: 2.14944 (Simulation time: 12 hr 5 min 14 sec) 
 Total Blocks : 262144 Invalid Blocks : 32
Heartbeat CPU 2 instructions: 30000002 cycles: 13957150 heartbeat IPC: 2.14948 cumulative IPC: 2.14944 (Simulation time: 12 hr 5 min 14 sec) 
 Total Blocks : 262144 Invalid Blocks : 32
Heartbeat CPU 3 instructions: 30000002 cycles: 13957221 heartbeat IPC: 2.14948 cumulative IPC: 2.14943 (Simulation time: 12 hr 5 min 15 sec) 
 Total Blocks : 262144 Invalid Blocks : 32
Heartbeat CPU 5 instructions: 30000002 cycles: 13957266 heartbeat IPC: 2.14949 cumulative IPC: 2.14942 (Simulation time: 12 hr 5 min 15 sec) 
 Total Blocks : 262144 Invalid Blocks : 32
Heartbeat CPU 4 instructions: 30000002 cycles: 13957279 heartbeat IPC: 2.14949 cumulative IPC: 2.14942 (Simulation time: 12 hr 5 min 15 sec) 
 Total Blocks : 262144 Invalid Blocks : 32
Heartbeat CPU 6 instructions: 30000002 cycles: 13957326 heartbeat IPC: 2.14947 cumulative IPC: 2.14941 (Simulation time: 12 hr 5 min 15 sec) 
 Total Blocks : 262144 Invalid Blocks : 32
Heartbeat CPU 7 instructions: 30000002 cycles: 13957362 heartbeat IPC: 2.14946 cumulative IPC: 2.1494 (Simulation time: 12 hr 5 min 15 sec) 
 Total Blocks : 262144 Invalid Blocks : 32
Heartbeat CPU 0 instructions: 40000000 cycles: 18609438 heartbeat IPC: 2.14945 cumulative IPC: 2.14945 (Simulation time: 15 hr 52 min 51 sec) 
 Total Blocks : 262144 Invalid Blocks : 4
Heartbeat CPU 1 instructions: 40000000 cycles: 18609461 heartbeat IPC: 2.14944 cumulative IPC: 2.14944 (Simulation time: 15 hr 52 min 56 sec) 
 Total Blocks : 262144 Invalid Blocks : 4
Heartbeat CPU 2 instructions: 40000000 cycles: 18609487 heartbeat IPC: 2.14946 cumulative IPC: 2.14944 (Simulation time: 15 hr 52 min 56 sec) 
 Total Blocks : 262144 Invalid Blocks : 4
Heartbeat CPU 3 instructions: 40000000 cycles: 18609597 heartbeat IPC: 2.14944 cumulative IPC: 2.14943 (Simulation time: 15 hr 52 min 57 sec) 
 Total Blocks : 262144 Invalid Blocks : 4
Heartbeat CPU 5 instructions: 40000000 cycles: 18609611 heartbeat IPC: 2.14945 cumulative IPC: 2.14943 (Simulation time: 15 hr 52 min 57 sec) 
 Total Blocks : 262144 Invalid Blocks : 4
Heartbeat CPU 4 instructions: 40000000 cycles: 18609626 heartbeat IPC: 2.14945 cumulative IPC: 2.14943 (Simulation time: 15 hr 52 min 57 sec) 
 Total Blocks : 262144 Invalid Blocks : 4
Heartbeat CPU 6 instructions: 40000000 cycles: 18609716 heartbeat IPC: 2.14943 cumulative IPC: 2.14941 (Simulation time: 15 hr 52 min 57 sec) 
 Total Blocks : 262144 Invalid Blocks : 4
Heartbeat CPU 7 instructions: 40000000 cycles: 18609755 heartbeat IPC: 2.14943 cumulative IPC: 2.14941 (Simulation time: 15 hr 52 min 57 sec) 
 Total Blocks : 262144 Invalid Blocks : 4
Heartbeat CPU 0 instructions: 50000001 cycles: 23261634 heartbeat IPC: 2.14952 cumulative IPC: 2.14946 (Simulation time: 19 hr 25 min 33 sec) 
 Total Blocks : 262144 Invalid Blocks : 1
Heartbeat CPU 1 instructions: 50000001 cycles: 23261641 heartbeat IPC: 2.14953 cumulative IPC: 2.14946 (Simulation time: 19 hr 25 min 36 sec) 
 Total Blocks : 262144 Invalid Blocks : 1
Heartbeat CPU 2 instructions: 50000001 cycles: 23261681 heartbeat IPC: 2.14952 cumulative IPC: 2.14946 (Simulation time: 19 hr 25 min 36 sec) 
 Total Blocks : 262144 Invalid Blocks : 1
Heartbeat CPU 5 instructions: 50000001 cycles: 23261816 heartbeat IPC: 2.14952 cumulative IPC: 2.14945 (Simulation time: 19 hr 25 min 37 sec) 
 Total Blocks : 262144 Invalid Blocks : 1
Heartbeat CPU 3 instructions: 50000001 cycles: 23261845 heartbeat IPC: 2.1495 cumulative IPC: 2.14944 (Simulation time: 19 hr 25 min 38 sec) 
 Total Blocks : 262144 Invalid Blocks : 1
Heartbeat CPU 4 instructions: 50000001 cycles: 23261846 heartbeat IPC: 2.14951 cumulative IPC: 2.14944 (Simulation time: 19 hr 25 min 38 sec) 
 Total Blocks : 262144 Invalid Blocks : 1
Heartbeat CPU 6 instructions: 50000001 cycles: 23261973 heartbeat IPC: 2.14949 cumulative IPC: 2.14943 (Simulation time: 19 hr 25 min 38 sec) 
 Total Blocks : 262144 Invalid Blocks : 1
Heartbeat CPU 7 instructions: 50000001 cycles: 23262015 heartbeat IPC: 2.14949 cumulative IPC: 2.14943 (Simulation time: 19 hr 25 min 38 sec) 
 Total Blocks : 262144 Invalid Blocks : 1
Heartbeat CPU 0 instructions: 60000000 cycles: 27915112 heartbeat IPC: 2.14893 cumulative IPC: 2.14937 (Simulation time: 23 hr 1 min 59 sec) 
 Total Blocks : 262144 Invalid Blocks : 0
Heartbeat CPU 1 instructions: 60000000 cycles: 27915121 heartbeat IPC: 2.14893 cumulative IPC: 2.14937 (Simulation time: 23 hr 2 min 2 sec) 
 Total Blocks : 262144 Invalid Blocks : 0
Heartbeat CPU 2 instructions: 60000000 cycles: 27915154 heartbeat IPC: 2.14893 cumulative IPC: 2.14937 (Simulation time: 23 hr 2 min 3 sec) 
 Total Blocks : 262144 Invalid Blocks : 0
Heartbeat CPU 5 instructions: 60000000 cycles: 27915238 heartbeat IPC: 2.14896 cumulative IPC: 2.14936 (Simulation time: 23 hr 2 min 4 sec) 
 Total Blocks : 262144 Invalid Blocks : 0
Heartbeat CPU 3 instructions: 60000000 cycles: 27915300 heartbeat IPC: 2.14894 cumulative IPC: 2.14936 (Simulation time: 23 hr 2 min 5 sec) 
 Total Blocks : 262144 Invalid Blocks : 0
Heartbeat CPU 4 instructions: 60000000 cycles: 27915312 heartbeat IPC: 2.14894 cumulative IPC: 2.14936 (Simulation time: 23 hr 2 min 5 sec) 
 Total Blocks : 262144 Invalid Blocks : 0
Heartbeat CPU 6 instructions: 60000000 cycles: 27915483 heartbeat IPC: 2.14892 cumulative IPC: 2.14934 (Simulation time: 23 hr 2 min 6 sec) 
 Total Blocks : 262144 Invalid Blocks : 0
Heartbeat CPU 7 instructions: 60000000 cycles: 27915555 heartbeat IPC: 2.1489 cumulative IPC: 2.14934 (Simulation time: 23 hr 2 min 7 sec) 
 Total Blocks : 262144 Invalid Blocks : 0
Heartbeat CPU 0 instructions: 70000000 cycles: 32567144 heartbeat IPC: 2.1496 cumulative IPC: 2.14941 (Simulation time: 26 hr 40 min 29 sec) 
 Total Blocks : 262144 Invalid Blocks : 0
Heartbeat CPU 1 instructions: 70000000 cycles: 32567149 heartbeat IPC: 2.1496 cumulative IPC: 2.14941 (Simulation time: 26 hr 40 min 31 sec) 
 Total Blocks : 262144 Invalid Blocks : 0
Heartbeat CPU 2 instructions: 70000000 cycles: 32567188 heartbeat IPC: 2.1496 cumulative IPC: 2.1494 (Simulation time: 26 hr 40 min 31 sec) 
 Total Blocks : 262144 Invalid Blocks : 0
Heartbeat CPU 5 instructions: 70000000 cycles: 32567239 heartbeat IPC: 2.14961 cumulative IPC: 2.1494 (Simulation time: 26 hr 40 min 31 sec) 
 Total Blocks : 262144 Invalid Blocks : 0
Heartbeat CPU 3 instructions: 70000000 cycles: 32567312 heartbeat IPC: 2.14961 cumulative IPC: 2.14939 (Simulation time: 26 hr 40 min 31 sec) 
 Total Blocks : 262144 Invalid Blocks : 0
Heartbeat CPU 4 instructions: 70000000 cycles: 32567323 heartbeat IPC: 2.14961 cumulative IPC: 2.14939 (Simulation time: 26 hr 40 min 31 sec) 
 Total Blocks : 262144 Invalid Blocks : 0
Heartbeat CPU 6 instructions: 70000000 cycles: 32567568 heartbeat IPC: 2.14957 cumulative IPC: 2.14938 (Simulation time: 26 hr 40 min 31 sec) 
 Total Blocks : 262144 Invalid Blocks : 0
Heartbeat CPU 7 instructions: 70000000 cycles: 32567686 heartbeat IPC: 2.14955 cumulative IPC: 2.14937 (Simulation time: 26 hr 40 min 32 sec) 
 Total Blocks : 262144 Invalid Blocks : 0
Heartbeat CPU 0 instructions: 80000001 cycles: 37218990 heartbeat IPC: 2.14968 cumulative IPC: 2.14944 (Simulation time: 30 hr 27 min 7 sec) 
 Total Blocks : 262144 Invalid Blocks : 0
Heartbeat CPU 1 instructions: 80000001 cycles: 37219013 heartbeat IPC: 2.14968 cumulative IPC: 2.14944 (Simulation time: 30 hr 27 min 9 sec) 
 Total Blocks : 262144 Invalid Blocks : 0
Heartbeat CPU 2 instructions: 80000001 cycles: 37219028 heartbeat IPC: 2.14969 cumulative IPC: 2.14944 (Simulation time: 30 hr 27 min 9 sec) 
 Total Blocks : 262144 Invalid Blocks : 0
Heartbeat CPU 5 instructions: 80000001 cycles: 37219056 heartbeat IPC: 2.1497 cumulative IPC: 2.14944 (Simulation time: 30 hr 27 min 10 sec) 
 Total Blocks : 262144 Invalid Blocks : 0
Heartbeat CPU 3 instructions: 80000001 cycles: 37219177 heartbeat IPC: 2.14968 cumulative IPC: 2.14943 (Simulation time: 30 hr 27 min 10 sec) 
 Total Blocks : 262144 Invalid Blocks : 0
Heartbeat CPU 4 instructions: 80000001 cycles: 37219198 heartbeat IPC: 2.14967 cumulative IPC: 2.14943 (Simulation time: 30 hr 27 min 10 sec) 
 Total Blocks : 262144 Invalid Blocks : 0
Heartbeat CPU 6 instructions: 80000001 cycles: 37219437 heartbeat IPC: 2.14967 cumulative IPC: 2.14941 (Simulation time: 30 hr 27 min 11 sec) 
 Total Blocks : 262144 Invalid Blocks : 0
Heartbeat CPU 7 instructions: 80000001 cycles: 37219623 heartbeat IPC: 2.14964 cumulative IPC: 2.1494 (Simulation time: 30 hr 27 min 11 sec) 
 Total Blocks : 262144 Invalid Blocks : 0
Heartbeat CPU 0 instructions: 90000000 cycles: 41870834 heartbeat IPC: 2.14968 cumulative IPC: 2.14947 (Simulation time: 34 hr 23 min 57 sec) 
 Total Blocks : 262144 Invalid Blocks : 0
Heartbeat CPU 1 instructions: 90000000 cycles: 41870844 heartbeat IPC: 2.14969 cumulative IPC: 2.14947 (Simulation time: 34 hr 24 min 7 sec) 
 Total Blocks : 262144 Invalid Blocks : 0
Heartbeat CPU 2 instructions: 90000000 cycles: 41870875 heartbeat IPC: 2.14968 cumulative IPC: 2.14947 (Simulation time: 34 hr 24 min 7 sec) 
 Total Blocks : 262144 Invalid Blocks : 0
Heartbeat CPU 5 instructions: 90000000 cycles: 41870883 heartbeat IPC: 2.14969 cumulative IPC: 2.14947 (Simulation time: 34 hr 24 min 7 sec) 
 Total Blocks : 262144 Invalid Blocks : 0
Heartbeat CPU 3 instructions: 90000000 cycles: 41871016 heartbeat IPC: 2.14969 cumulative IPC: 2.14946 (Simulation time: 34 hr 24 min 7 sec) 
 Total Blocks : 262144 Invalid Blocks : 0
Heartbeat CPU 4 instructions: 90000000 cycles: 41871026 heartbeat IPC: 2.14969 cumulative IPC: 2.14946 (Simulation time: 34 hr 24 min 7 sec) 
 Total Blocks : 262144 Invalid Blocks : 0
Heartbeat CPU 6 instructions: 90000000 cycles: 41871289 heartbeat IPC: 2.14968 cumulative IPC: 2.14944 (Simulation time: 34 hr 24 min 7 sec) 
 Total Blocks : 262144 Invalid Blocks : 0
Heartbeat CPU 7 instructions: 90000000 cycles: 41871496 heartbeat IPC: 2.14967 cumulative IPC: 2.14943 (Simulation time: 34 hr 24 min 7 sec) 
 Total Blocks : 262144 Invalid Blocks : 0
Heartbeat CPU 0 instructions: 100000003 cycles: 46522683 heartbeat IPC: 2.14968 cumulative IPC: 2.14949 (Simulation time: 38 hr 21 min 17 sec) 
 Total Blocks : 262144 Invalid Blocks : 0
Heartbeat CPU 1 instructions: 100000003 cycles: 46522687 heartbeat IPC: 2.14969 cumulative IPC: 2.14949 (Simulation time: 38 hr 21 min 19 sec) 
 Total Blocks : 262144 Invalid Blocks : 0
Heartbeat CPU 2 instructions: 100000003 cycles: 46522734 heartbeat IPC: 2.14968 cumulative IPC: 2.14949 (Simulation time: 38 hr 21 min 19 sec) 
 Total Blocks : 262144 Invalid Blocks : 0
Heartbeat CPU 5 instructions: 100000003 cycles: 46522742 heartbeat IPC: 2.14968 cumulative IPC: 2.14949 (Simulation time: 38 hr 21 min 19 sec) 
 Total Blocks : 262144 Invalid Blocks : 0
Heartbeat CPU 3 instructions: 100000003 cycles: 46522887 heartbeat IPC: 2.14967 cumulative IPC: 2.14948 (Simulation time: 38 hr 21 min 19 sec) 
 Total Blocks : 262144 Invalid Blocks : 0
Heartbeat CPU 4 instructions: 100000003 cycles: 46522892 heartbeat IPC: 2.14968 cumulative IPC: 2.14948 (Simulation time: 38 hr 21 min 19 sec) 
 Total Blocks : 262144 Invalid Blocks : 0
Heartbeat CPU 6 instructions: 100000003 cycles: 46523124 heartbeat IPC: 2.14969 cumulative IPC: 2.14947 (Simulation time: 38 hr 21 min 19 sec) 
 Total Blocks : 262144 Invalid Blocks : 0
Heartbeat CPU 7 instructions: 100000003 cycles: 46523418 heartbeat IPC: 2.14965 cumulative IPC: 2.14946 (Simulation time: 38 hr 21 min 19 sec) 
 Total Blocks : 262144 Invalid Blocks : 0
Heartbeat CPU 0 instructions: 110000000 cycles: 51174049 heartbeat IPC: 2.14991 cumulative IPC: 2.14953 (Simulation time: 42 hr 34 min 31 sec) 
 Total Blocks : 262144 Invalid Blocks : 0
Heartbeat CPU 1 instructions: 110000000 cycles: 51174053 heartbeat IPC: 2.14991 cumulative IPC: 2.14953 (Simulation time: 42 hr 34 min 33 sec) 
 Total Blocks : 262144 Invalid Blocks : 0
Heartbeat CPU 2 instructions: 110000000 cycles: 51174117 heartbeat IPC: 2.1499 cumulative IPC: 2.14952 (Simulation time: 42 hr 34 min 33 sec) 
 Total Blocks : 262144 Invalid Blocks : 0
Heartbeat CPU 5 instructions: 110000000 cycles: 51174122 heartbeat IPC: 2.1499 cumulative IPC: 2.14952 (Simulation time: 42 hr 34 min 33 sec) 
 Total Blocks : 262144 Invalid Blocks : 0
Heartbeat CPU 4 instructions: 110000000 cycles: 51174245 heartbeat IPC: 2.14991 cumulative IPC: 2.14952 (Simulation time: 42 hr 34 min 33 sec) 
 Total Blocks : 262144 Invalid Blocks : 0
Heartbeat CPU 3 instructions: 110000000 cycles: 51174250 heartbeat IPC: 2.14991 cumulative IPC: 2.14952 (Simulation time: 42 hr 34 min 33 sec) 
 Total Blocks : 262144 Invalid Blocks : 0
Heartbeat CPU 6 instructions: 110000000 cycles: 51174491 heartbeat IPC: 2.1499 cumulative IPC: 2.14951 (Simulation time: 42 hr 34 min 33 sec) 
 Total Blocks : 262144 Invalid Blocks : 0
Heartbeat CPU 7 instructions: 110000000 cycles: 51174847 heartbeat IPC: 2.14988 cumulative IPC: 2.14949 (Simulation time: 42 hr 34 min 33 sec) 
 Total Blocks : 262144 Invalid Blocks : 0
Heartbeat CPU 0 instructions: 120000001 cycles: 55826010 heartbeat IPC: 2.14963 cumulative IPC: 2.14954 (Simulation time: 46 hr 49 min 50 sec) 
 Total Blocks : 262144 Invalid Blocks : 0
Heartbeat CPU 1 instructions: 120000001 cycles: 55826016 heartbeat IPC: 2.14963 cumulative IPC: 2.14954 (Simulation time: 46 hr 49 min 51 sec) 
 Total Blocks : 262144 Invalid Blocks : 0
Heartbeat CPU 5 instructions: 120000001 cycles: 55826059 heartbeat IPC: 2.14964 cumulative IPC: 2.14953 (Simulation time: 46 hr 49 min 52 sec) 
 Total Blocks : 262144 Invalid Blocks : 0
Heartbeat CPU 2 instructions: 120000001 cycles: 55826119 heartbeat IPC: 2.14961 cumulative IPC: 2.14953 (Simulation time: 46 hr 49 min 52 sec) 
 Total Blocks : 262144 Invalid Blocks : 0
Heartbeat CPU 3 instructions: 120000001 cycles: 55826214 heartbeat IPC: 2.14963 cumulative IPC: 2.14953 (Simulation time: 46 hr 49 min 52 sec) 
 Total Blocks : 262144 Invalid Blocks : 0
Heartbeat CPU 4 instructions: 120000001 cycles: 55826218 heartbeat IPC: 2.14963 cumulative IPC: 2.14953 (Simulation time: 46 hr 49 min 52 sec) 
 Total Blocks : 262144 Invalid Blocks : 0
Heartbeat CPU 6 instructions: 120000001 cycles: 55826453 heartbeat IPC: 2.14963 cumulative IPC: 2.14952 (Simulation time: 46 hr 49 min 54 sec) 
 Total Blocks : 262144 Invalid Blocks : 0
Heartbeat CPU 7 instructions: 120000001 cycles: 55826858 heartbeat IPC: 2.14961 cumulative IPC: 2.1495 (Simulation time: 46 hr 49 min 54 sec) 
 Total Blocks : 262144 Invalid Blocks : 0
Heartbeat CPU 0 instructions: 130000000 cycles: 60477936 heartbeat IPC: 2.14965 cumulative IPC: 2.14954 (Simulation time: 51 hr 10 min 22 sec) 
 Total Blocks : 262144 Invalid Blocks : 0
Heartbeat CPU 1 instructions: 130000000 cycles: 60477954 heartbeat IPC: 2.14964 cumulative IPC: 2.14954 (Simulation time: 51 hr 10 min 23 sec) 
 Total Blocks : 262144 Invalid Blocks : 0
Heartbeat CPU 5 instructions: 130000000 cycles: 60477977 heartbeat IPC: 2.14965 cumulative IPC: 2.14954 (Simulation time: 51 hr 10 min 23 sec) 
 Total Blocks : 262144 Invalid Blocks : 0
Heartbeat CPU 2 instructions: 130000000 cycles: 60478077 heartbeat IPC: 2.14963 cumulative IPC: 2.14954 (Simulation time: 51 hr 10 min 23 sec) 
 Total Blocks : 262144 Invalid Blocks : 0
Heartbeat CPU 3 instructions: 130000000 cycles: 60478146 heartbeat IPC: 2.14964 cumulative IPC: 2.14954 (Simulation time: 51 hr 10 min 24 sec) 
 Total Blocks : 262144 Invalid Blocks : 0
Heartbeat CPU 4 instructions: 130000000 cycles: 60478162 heartbeat IPC: 2.14964 cumulative IPC: 2.14954 (Simulation time: 51 hr 10 min 24 sec) 
 Total Blocks : 262144 Invalid Blocks : 0
Heartbeat CPU 6 instructions: 130000000 cycles: 60478372 heartbeat IPC: 2.14965 cumulative IPC: 2.14953 (Simulation time: 51 hr 10 min 24 sec) 
 Total Blocks : 262144 Invalid Blocks : 0
Heartbeat CPU 7 instructions: 130000000 cycles: 60478869 heartbeat IPC: 2.14961 cumulative IPC: 2.14951 (Simulation time: 51 hr 10 min 24 sec) 
 Total Blocks : 262144 Invalid Blocks : 0
Heartbeat CPU 5 instructions: 140000003 cycles: 65130004 heartbeat IPC: 2.1496 cumulative IPC: 2.14955 (Simulation time: 55 hr 30 min 23 sec) 
 Total Blocks : 262144 Invalid Blocks : 0
Heartbeat CPU 0 instructions: 140000003 cycles: 65130006 heartbeat IPC: 2.14958 cumulative IPC: 2.14955 (Simulation time: 55 hr 30 min 24 sec) 
 Total Blocks : 262144 Invalid Blocks : 0
Heartbeat CPU 1 instructions: 140000003 cycles: 65130011 heartbeat IPC: 2.14959 cumulative IPC: 2.14955 (Simulation time: 55 hr 30 min 24 sec) 
 Total Blocks : 262144 Invalid Blocks : 0
Heartbeat CPU 2 instructions: 140000003 cycles: 65130138 heartbeat IPC: 2.14959 cumulative IPC: 2.14954 (Simulation time: 55 hr 30 min 25 sec) 
 Total Blocks : 262144 Invalid Blocks : 0
Heartbeat CPU 3 instructions: 140000003 cycles: 65130203 heartbeat IPC: 2.14959 cumulative IPC: 2.14954 (Simulation time: 55 hr 30 min 25 sec) 
 Total Blocks : 262144 Invalid Blocks : 0
Heartbeat CPU 4 instructions: 140000003 cycles: 65130209 heartbeat IPC: 2.14959 cumulative IPC: 2.14954 (Simulation time: 55 hr 30 min 25 sec) 
 Total Blocks : 262144 Invalid Blocks : 0
Heartbeat CPU 6 instructions: 140000003 cycles: 65130393 heartbeat IPC: 2.1496 cumulative IPC: 2.14953 (Simulation time: 55 hr 30 min 25 sec) 
 Total Blocks : 262144 Invalid Blocks : 0
Heartbeat CPU 7 instructions: 140000003 cycles: 65130995 heartbeat IPC: 2.14956 cumulative IPC: 2.14951 (Simulation time: 55 hr 30 min 25 sec) 
 Total Blocks : 262144 Invalid Blocks : 0
Heartbeat CPU 0 instructions: 150000003 cycles: 69781885 heartbeat IPC: 2.14967 cumulative IPC: 2.14955 (Simulation time: 59 hr 37 min 37 sec) 
 Total Blocks : 262144 Invalid Blocks : 0
Heartbeat CPU 1 instructions: 150000003 cycles: 69781891 heartbeat IPC: 2.14967 cumulative IPC: 2.14955 (Simulation time: 59 hr 37 min 38 sec) 
 Total Blocks : 262144 Invalid Blocks : 0
Heartbeat CPU 5 instructions: 150000003 cycles: 69781903 heartbeat IPC: 2.14966 cumulative IPC: 2.14955 (Simulation time: 59 hr 37 min 38 sec) 
 Total Blocks : 262144 Invalid Blocks : 0
Heartbeat CPU 2 instructions: 150000003 cycles: 69782059 heartbeat IPC: 2.14965 cumulative IPC: 2.14955 (Simulation time: 59 hr 37 min 38 sec) 
 Total Blocks : 262144 Invalid Blocks : 0
Heartbeat CPU 3 instructions: 150000003 cycles: 69782072 heartbeat IPC: 2.14967 cumulative IPC: 2.14955 (Simulation time: 59 hr 37 min 38 sec) 
 Total Blocks : 262144 Invalid Blocks : 0
Heartbeat CPU 4 instructions: 150000003 cycles: 69782078 heartbeat IPC: 2.14967 cumulative IPC: 2.14955 (Simulation time: 59 hr 37 min 39 sec) 
 Total Blocks : 262144 Invalid Blocks : 0
Heartbeat CPU 6 instructions: 150000003 cycles: 69782257 heartbeat IPC: 2.14968 cumulative IPC: 2.14954 (Simulation time: 59 hr 37 min 39 sec) 
 Total Blocks : 262144 Invalid Blocks : 0
Heartbeat CPU 7 instructions: 150000003 cycles: 69782924 heartbeat IPC: 2.14965 cumulative IPC: 2.14952 (Simulation time: 59 hr 37 min 39 sec) 
 Total Blocks : 262144 Invalid Blocks : 0
Heartbeat CPU 0 instructions: 160000002 cycles: 74434006 heartbeat IPC: 2.14956 cumulative IPC: 2.14956 (Simulation time: 63 hr 36 min 5 sec) 
 Total Blocks : 262144 Invalid Blocks : 0
Heartbeat CPU 1 instructions: 160000002 cycles: 74434011 heartbeat IPC: 2.14956 cumulative IPC: 2.14955 (Simulation time: 63 hr 36 min 6 sec) 
 Total Blocks : 262144 Invalid Blocks : 0
Heartbeat CPU 5 instructions: 160000002 cycles: 74434022 heartbeat IPC: 2.14956 cumulative IPC: 2.14955 (Simulation time: 63 hr 36 min 6 sec) 
 Total Blocks : 262144 Invalid Blocks : 0
Heartbeat CPU 2 instructions: 160000002 cycles: 74434224 heartbeat IPC: 2.14954 cumulative IPC: 2.14955 (Simulation time: 63 hr 36 min 6 sec) 
 Total Blocks : 262144 Invalid Blocks : 0
Heartbeat CPU 3 instructions: 160000002 cycles: 74434235 heartbeat IPC: 2.14954 cumulative IPC: 2.14955 (Simulation time: 63 hr 36 min 6 sec) 
 Total Blocks : 262144 Invalid Blocks : 0
Heartbeat CPU 4 instructions: 160000002 cycles: 74434238 heartbeat IPC: 2.14954 cumulative IPC: 2.14955 (Simulation time: 63 hr 36 min 6 sec) 
 Total Blocks : 262144 Invalid Blocks : 0
Heartbeat CPU 6 instructions: 160000002 cycles: 74434365 heartbeat IPC: 2.14956 cumulative IPC: 2.14954 (Simulation time: 63 hr 36 min 6 sec) 
 Total Blocks : 262144 Invalid Blocks : 0
Heartbeat CPU 7 instructions: 160000002 cycles: 74435119 heartbeat IPC: 2.14952 cumulative IPC: 2.14952 (Simulation time: 63 hr 36 min 7 sec) 
 Total Blocks : 262144 Invalid Blocks : 0
Heartbeat CPU 0 instructions: 170000003 cycles: 79085785 heartbeat IPC: 2.14972 cumulative IPC: 2.14956 (Simulation time: 67 hr 31 min 48 sec) 
 Total Blocks : 262144 Invalid Blocks : 0
Heartbeat CPU 5 instructions: 170000003 cycles: 79085803 heartbeat IPC: 2.14971 cumulative IPC: 2.14956 (Simulation time: 67 hr 31 min 55 sec) 
 Total Blocks : 262144 Invalid Blocks : 0
Heartbeat CPU 1 instructions: 170000003 cycles: 79085806 heartbeat IPC: 2.14971 cumulative IPC: 2.14956 (Simulation time: 67 hr 31 min 55 sec) 
 Total Blocks : 262144 Invalid Blocks : 0
Heartbeat CPU 2 instructions: 170000003 cycles: 79086050 heartbeat IPC: 2.14969 cumulative IPC: 2.14956 (Simulation time: 67 hr 31 min 55 sec) 
 Total Blocks : 262144 Invalid Blocks : 0
Heartbeat CPU 4 instructions: 170000003 cycles: 79086069 heartbeat IPC: 2.14969 cumulative IPC: 2.14956 (Simulation time: 67 hr 31 min 55 sec) 
 Total Blocks : 262144 Invalid Blocks : 0
Heartbeat CPU 3 instructions: 170000003 cycles: 79086072 heartbeat IPC: 2.14969 cumulative IPC: 2.14956 (Simulation time: 67 hr 31 min 55 sec) 
 Total Blocks : 262144 Invalid Blocks : 0
Heartbeat CPU 6 instructions: 170000003 cycles: 79086160 heartbeat IPC: 2.14971 cumulative IPC: 2.14955 (Simulation time: 67 hr 31 min 55 sec) 
 Total Blocks : 262144 Invalid Blocks : 0
Heartbeat CPU 7 instructions: 170000003 cycles: 79086963 heartbeat IPC: 2.14969 cumulative IPC: 2.14953 (Simulation time: 67 hr 31 min 55 sec) 
 Total Blocks : 262144 Invalid Blocks : 0
Heartbeat CPU 0 instructions: 180000003 cycles: 83737739 heartbeat IPC: 2.14963 cumulative IPC: 2.14957 (Simulation time: 71 hr 26 min 57 sec) 
 Total Blocks : 262144 Invalid Blocks : 0
Heartbeat CPU 1 instructions: 180000003 cycles: 83737753 heartbeat IPC: 2.14964 cumulative IPC: 2.14957 (Simulation time: 71 hr 27 min 0 sec) 
 Total Blocks : 262144 Invalid Blocks : 0
Heartbeat CPU 5 instructions: 180000003 cycles: 83737761 heartbeat IPC: 2.14963 cumulative IPC: 2.14957 (Simulation time: 71 hr 27 min 0 sec) 
 Total Blocks : 262144 Invalid Blocks : 0
Heartbeat CPU 2 instructions: 180000003 cycles: 83738050 heartbeat IPC: 2.14961 cumulative IPC: 2.14956 (Simulation time: 71 hr 27 min 0 sec) 
 Total Blocks : 262144 Invalid Blocks : 0
Heartbeat CPU 3 instructions: 180000003 cycles: 83738054 heartbeat IPC: 2.14962 cumulative IPC: 2.14956 (Simulation time: 71 hr 27 min 0 sec) 
 Total Blocks : 262144 Invalid Blocks : 0
Heartbeat CPU 4 instructions: 180000003 cycles: 83738059 heartbeat IPC: 2.14962 cumulative IPC: 2.14956 (Simulation time: 71 hr 27 min 0 sec) 
 Total Blocks : 262144 Invalid Blocks : 0
Heartbeat CPU 6 instructions: 180000003 cycles: 83738147 heartbeat IPC: 2.14962 cumulative IPC: 2.14956 (Simulation time: 71 hr 27 min 0 sec) 
 Total Blocks : 262144 Invalid Blocks : 0
Heartbeat CPU 7 instructions: 180000003 cycles: 83738985 heartbeat IPC: 2.1496 cumulative IPC: 2.14954 (Simulation time: 71 hr 27 min 0 sec) 
 Total Blocks : 262144 Invalid Blocks : 0
Heartbeat CPU 0 instructions: 190000001 cycles: 88389746 heartbeat IPC: 2.14961 cumulative IPC: 2.14957 (Simulation time: 75 hr 22 min 17 sec) 
 Total Blocks : 262144 Invalid Blocks : 0
Heartbeat CPU 1 instructions: 190000001 cycles: 88389760 heartbeat IPC: 2.14961 cumulative IPC: 2.14957 (Simulation time: 75 hr 22 min 18 sec) 
 Total Blocks : 262144 Invalid Blocks : 0
Heartbeat CPU 5 instructions: 190000001 cycles: 88389771 heartbeat IPC: 2.14961 cumulative IPC: 2.14957 (Simulation time: 75 hr 22 min 18 sec) 
 Total Blocks : 262144 Invalid Blocks : 0
Heartbeat CPU 3 instructions: 190000001 cycles: 88390034 heartbeat IPC: 2.14962 cumulative IPC: 2.14956 (Simulation time: 75 hr 22 min 18 sec) 
 Total Blocks : 262144 Invalid Blocks : 0
Heartbeat CPU 2 instructions: 190000001 cycles: 88390058 heartbeat IPC: 2.14961 cumulative IPC: 2.14956 (Simulation time: 75 hr 22 min 18 sec) 
 Total Blocks : 262144 Invalid Blocks : 0
Heartbeat CPU 4 instructions: 190000001 cycles: 88390068 heartbeat IPC: 2.14961 cumulative IPC: 2.14956 (Simulation time: 75 hr 22 min 18 sec) 
 Total Blocks : 262144 Invalid Blocks : 0
Heartbeat CPU 6 instructions: 190000001 cycles: 88390150 heartbeat IPC: 2.14961 cumulative IPC: 2.14956 (Simulation time: 75 hr 22 min 18 sec) 
 Total Blocks : 262144 Invalid Blocks : 0
Heartbeat CPU 7 instructions: 190000001 cycles: 88390983 heartbeat IPC: 2.14961 cumulative IPC: 2.14954 (Simulation time: 75 hr 22 min 24 sec) 
 Total Blocks : 262144 Invalid Blocks : 0
Heartbeat CPU 1 instructions: 200000001 cycles: 93041909 heartbeat IPC: 2.14954 cumulative IPC: 2.14957 (Simulation time: 79 hr 25 min 43 sec) 
 Total Blocks : 262144 Invalid Blocks : 0
Heartbeat CPU 5 instructions: 200000001 cycles: 93041910 heartbeat IPC: 2.14955 cumulative IPC: 2.14957 (Simulation time: 79 hr 25 min 44 sec) 
 Total Blocks : 262144 Invalid Blocks : 0
Heartbeat CPU 0 instructions: 200000001 cycles: 93041912 heartbeat IPC: 2.14954 cumulative IPC: 2.14957 (Simulation time: 79 hr 25 min 44 sec) 
 Total Blocks : 262144 Invalid Blocks : 0
Heartbeat CPU 2 instructions: 200000001 cycles: 93042212 heartbeat IPC: 2.14954 cumulative IPC: 2.14956 (Simulation time: 79 hr 25 min 44 sec) 
 Total Blocks : 262144 Invalid Blocks : 0
Heartbeat CPU 3 instructions: 200000001 cycles: 93042222 heartbeat IPC: 2.14953 cumulative IPC: 2.14956 (Simulation time: 79 hr 25 min 44 sec) 
 Total Blocks : 262144 Invalid Blocks : 0
Heartbeat CPU 4 instructions: 200000001 cycles: 93042236 heartbeat IPC: 2.14954 cumulative IPC: 2.14956 (Simulation time: 79 hr 25 min 44 sec) 
 Total Blocks : 262144 Invalid Blocks : 0
Heartbeat CPU 6 instructions: 200000001 cycles: 93042281 heartbeat IPC: 2.14955 cumulative IPC: 2.14956 (Simulation time: 79 hr 25 min 44 sec) 
 Total Blocks : 262144 Invalid Blocks : 0
Heartbeat CPU 7 instructions: 200000001 cycles: 93043161 heartbeat IPC: 2.14953 cumulative IPC: 2.14954 (Simulation time: 79 hr 25 min 45 sec) 
 Total Blocks : 262144 Invalid Blocks : 0

Warmup complete CPU 0 instructions: 200002647 cycles: 93043161 (Simulation time: 79 hr 25 min 45 sec) 
Warmup complete CPU 1 instructions: 200002647 cycles: 93043161 (Simulation time: 79 hr 25 min 45 sec) 
Warmup complete CPU 2 instructions: 200002001 cycles: 93043161 (Simulation time: 79 hr 25 min 45 sec) 
Warmup complete CPU 3 instructions: 200001980 cycles: 93043161 (Simulation time: 79 hr 25 min 45 sec) 
Warmup complete CPU 4 instructions: 200001928 cycles: 93043161 (Simulation time: 79 hr 25 min 45 sec) 
Warmup complete CPU 5 instructions: 200002647 cycles: 93043161 (Simulation time: 79 hr 25 min 45 sec) 
Warmup complete CPU 6 instructions: 200001853 cycles: 93043161 (Simulation time: 79 hr 25 min 45 sec) 
Warmup complete CPU 7 instructions: 200000001 cycles: 93043161 (Simulation time: 79 hr 25 min 45 sec) 

Heartbeat CPU 5 instructions: 210000001 cycles: 102679968 heartbeat IPC: 1.03755 cumulative IPC: 1.03741 (Simulation time: 83 hr 48 min 13 sec) 
 Total Blocks : 262144 Invalid Blocks : 0
Heartbeat CPU 6 instructions: 210000001 cycles: 102680029 heartbeat IPC: 1.03759 cumulative IPC: 1.03749 (Simulation time: 83 hr 48 min 14 sec) 
 Total Blocks : 262144 Invalid Blocks : 0
Heartbeat CPU 7 instructions: 210000001 cycles: 102680244 heartbeat IPC: 1.03766 cumulative IPC: 1.03766 (Simulation time: 83 hr 48 min 14 sec) 
 Total Blocks : 262144 Invalid Blocks : 0
Heartbeat CPU 0 instructions: 210000001 cycles: 102680616 heartbeat IPC: 1.03748 cumulative IPC: 1.03734 (Simulation time: 83 hr 48 min 14 sec) 
 Total Blocks : 262144 Invalid Blocks : 0
Heartbeat CPU 2 instructions: 210000001 cycles: 102680667 heartbeat IPC: 1.03751 cumulative IPC: 1.03741 (Simulation time: 83 hr 48 min 14 sec) 
 Total Blocks : 262144 Invalid Blocks : 0
Heartbeat CPU 4 instructions: 210000001 cycles: 102680769 heartbeat IPC: 1.0375 cumulative IPC: 1.0374 (Simulation time: 83 hr 48 min 14 sec) 
 Total Blocks : 262144 Invalid Blocks : 0
Heartbeat CPU 3 instructions: 210000001 cycles: 102681068 heartbeat IPC: 1.03747 cumulative IPC: 1.03736 (Simulation time: 83 hr 48 min 14 sec) 
 Total Blocks : 262144 Invalid Blocks : 0
Heartbeat CPU 1 instructions: 210000001 cycles: 102683874 heartbeat IPC: 1.03713 cumulative IPC: 1.03699 (Simulation time: 83 hr 48 min 20 sec) 
 Total Blocks : 262144 Invalid Blocks : 0
Heartbeat CPU 6 instructions: 220000000 cycles: 112318433 heartbeat IPC: 1.03752 cumulative IPC: 1.0375 (Simulation time: 88 hr 16 min 14 sec) 
 Total Blocks : 262144 Invalid Blocks : 0
Heartbeat CPU 2 instructions: 220000000 cycles: 112318460 heartbeat IPC: 1.03758 cumulative IPC: 1.03749 (Simulation time: 88 hr 16 min 14 sec) 
 Total Blocks : 262144 Invalid Blocks : 0
Heartbeat CPU 7 instructions: 220000000 cycles: 112318736 heartbeat IPC: 1.03751 cumulative IPC: 1.03758 (Simulation time: 88 hr 16 min 14 sec) 
 Total Blocks : 262144 Invalid Blocks : 0
Heartbeat CPU 1 instructions: 220000000 cycles: 112318810 heartbeat IPC: 1.03789 cumulative IPC: 1.03744 (Simulation time: 88 hr 16 min 14 sec) 
 Total Blocks : 262144 Invalid Blocks : 0
Heartbeat CPU 5 instructions: 220000000 cycles: 112319597 heartbeat IPC: 1.03738 cumulative IPC: 1.0374 (Simulation time: 88 hr 16 min 15 sec) 
 Total Blocks : 262144 Invalid Blocks : 0
Heartbeat CPU 0 instructions: 220000000 cycles: 112320630 heartbeat IPC: 1.03734 cumulative IPC: 1.03734 (Simulation time: 88 hr 16 min 15 sec) 
 Total Blocks : 262144 Invalid Blocks : 0
Heartbeat CPU 3 instructions: 220000000 cycles: 112320944 heartbeat IPC: 1.03736 cumulative IPC: 1.03736 (Simulation time: 88 hr 16 min 15 sec) 
 Total Blocks : 262144 Invalid Blocks : 0
Heartbeat CPU 4 instructions: 220000000 cycles: 112323207 heartbeat IPC: 1.03708 cumulative IPC: 1.03724 (Simulation time: 88 hr 16 min 27 sec) 
 Total Blocks : 262144 Invalid Blocks : 0
Heartbeat CPU 3 instructions: 230000001 cycles: 121751872 heartbeat IPC: 1.06034 cumulative IPC: 1.04491 (Simulation time: 92 hr 47 min 41 sec) 
 Total Blocks : 262144 Invalid Blocks : 0
Heartbeat CPU 7 instructions: 230000001 cycles: 121752434 heartbeat IPC: 1.06003 cumulative IPC: 1.04496 (Simulation time: 92 hr 47 min 44 sec) 
 Total Blocks : 262144 Invalid Blocks : 0
Heartbeat CPU 4 instructions: 230000001 cycles: 121769294 heartbeat IPC: 1.05864 cumulative IPC: 1.04428 (Simulation time: 92 hr 48 min 11 sec) 
 Total Blocks : 262144 Invalid Blocks : 0
Heartbeat CPU 1 instructions: 230000001 cycles: 121769600 heartbeat IPC: 1.05811 cumulative IPC: 1.04424 (Simulation time: 92 hr 48 min 12 sec) 
 Total Blocks : 262144 Invalid Blocks : 0
Heartbeat CPU 6 instructions: 230000001 cycles: 121769914 heartbeat IPC: 1.05804 cumulative IPC: 1.04426 (Simulation time: 92 hr 48 min 13 sec) 
 Total Blocks : 262144 Invalid Blocks : 0
Heartbeat CPU 0 instructions: 230000001 cycles: 121783243 heartbeat IPC: 1.05679 cumulative IPC: 1.04375 (Simulation time: 92 hr 48 min 32 sec) 
 Total Blocks : 262144 Invalid Blocks : 0
Heartbeat CPU 5 instructions: 230000001 cycles: 121784569 heartbeat IPC: 1.05653 cumulative IPC: 1.0437 (Simulation time: 92 hr 48 min 33 sec) 
 Total Blocks : 262144 Invalid Blocks : 0
Heartbeat CPU 2 instructions: 230000001 cycles: 121785538 heartbeat IPC: 1.05629 cumulative IPC: 1.04369 (Simulation time: 92 hr 48 min 35 sec) 
 Total Blocks : 262144 Invalid Blocks : 0
Heartbeat CPU 1 instructions: 240000001 cycles: 131100327 heartbeat IPC: 1.07173 cumulative IPC: 1.05098 (Simulation time: 97 hr 20 min 6 sec) 
 Total Blocks : 262144 Invalid Blocks : 0
Heartbeat CPU 3 instructions: 240000001 cycles: 131100764 heartbeat IPC: 1.06965 cumulative IPC: 1.05099 (Simulation time: 97 hr 20 min 7 sec) 
 Total Blocks : 262144 Invalid Blocks : 0
Heartbeat CPU 6 instructions: 240000001 cycles: 131114476 heartbeat IPC: 1.07014 cumulative IPC: 1.05061 (Simulation time: 97 hr 20 min 31 sec) 
 Total Blocks : 262144 Invalid Blocks : 0
Heartbeat CPU 4 instructions: 240000001 cycles: 131115185 heartbeat IPC: 1.06999 cumulative IPC: 1.05059 (Simulation time: 97 hr 20 min 31 sec) 
 Total Blocks : 262144 Invalid Blocks : 0
Heartbeat CPU 2 instructions: 240000001 cycles: 131115287 heartbeat IPC: 1.07184 cumulative IPC: 1.05058 (Simulation time: 97 hr 20 min 31 sec) 
 Total Blocks : 262144 Invalid Blocks : 0
Heartbeat CPU 7 instructions: 240000001 cycles: 131129402 heartbeat IPC: 1.06644 cumulative IPC: 1.05025 (Simulation time: 97 hr 20 min 55 sec) 
 Total Blocks : 262144 Invalid Blocks : 0
Heartbeat CPU 0 instructions: 240000001 cycles: 131129668 heartbeat IPC: 1.06993 cumulative IPC: 1.05017 (Simulation time: 97 hr 20 min 56 sec) 
 Total Blocks : 262144 Invalid Blocks : 0
Heartbeat CPU 5 instructions: 240000001 cycles: 131145132 heartbeat IPC: 1.06831 cumulative IPC: 1.04974 (Simulation time: 97 hr 21 min 20 sec) 
 Total Blocks : 262144 Invalid Blocks : 0
Heartbeat CPU 1 instructions: 250000003 cycles: 140398350 heartbeat IPC: 1.0755 cumulative IPC: 1.05579 (Simulation time: 101 hr 51 min 45 sec) 
 Total Blocks : 262144 Invalid Blocks : 0
Heartbeat CPU 3 instructions: 250000003 cycles: 140429820 heartbeat IPC: 1.07192 cumulative IPC: 1.05511 (Simulation time: 101 hr 52 min 40 sec) 
 Total Blocks : 262144 Invalid Blocks : 0
Heartbeat CPU 0 instructions: 250000003 cycles: 140456566 heartbeat IPC: 1.07217 cumulative IPC: 1.0545 (Simulation time: 101 hr 53 min 26 sec) 
 Total Blocks : 262144 Invalid Blocks : 0
Heartbeat CPU 6 instructions: 250000003 cycles: 140457624 heartbeat IPC: 1.0703 cumulative IPC: 1.05449 (Simulation time: 101 hr 53 min 30 sec) 
 Total Blocks : 262144 Invalid Blocks : 0
Heartbeat CPU 4 instructions: 250000003 cycles: 140458517 heartbeat IPC: 1.07028 cumulative IPC: 1.05447 (Simulation time: 101 hr 53 min 33 sec) 
 Total Blocks : 262144 Invalid Blocks : 0
Heartbeat CPU 7 instructions: 250000003 cycles: 140470727 heartbeat IPC: 1.07051 cumulative IPC: 1.05424 (Simulation time: 101 hr 53 min 56 sec) 
 Total Blocks : 262144 Invalid Blocks : 0
Heartbeat CPU 2 instructions: 250000003 cycles: 140473013 heartbeat IPC: 1.06864 cumulative IPC: 1.05415 (Simulation time: 101 hr 54 min 0 sec) 
 Total Blocks : 262144 Invalid Blocks : 0
Heartbeat CPU 5 instructions: 250000003 cycles: 140487206 heartbeat IPC: 1.07043 cumulative IPC: 1.05382 (Simulation time: 101 hr 54 min 24 sec) 
 Total Blocks : 262144 Invalid Blocks : 0
Heartbeat CPU 1 instructions: 260000000 cycles: 149634274 heartbeat IPC: 1.08273 cumulative IPC: 1.06019 (Simulation time: 106 hr 27 min 41 sec) 
 Total Blocks : 262144 Invalid Blocks : 0
Heartbeat CPU 3 instructions: 260000000 cycles: 149710346 heartbeat IPC: 1.07752 cumulative IPC: 1.05878 (Simulation time: 106 hr 30 min 8 sec) 
 Total Blocks : 262144 Invalid Blocks : 0
Heartbeat CPU 0 instructions: 260000000 cycles: 149751014 heartbeat IPC: 1.07591 cumulative IPC: 1.05801 (Simulation time: 106 hr 31 min 20 sec) 
 Total Blocks : 262144 Invalid Blocks : 0
Heartbeat CPU 6 instructions: 260000000 cycles: 149752598 heartbeat IPC: 1.07585 cumulative IPC: 1.05799 (Simulation time: 106 hr 31 min 21 sec) 
 Total Blocks : 262144 Invalid Blocks : 0
Heartbeat CPU 2 instructions: 260000000 cycles: 149753363 heartbeat IPC: 1.07755 cumulative IPC: 1.05798 (Simulation time: 106 hr 31 min 22 sec) 
 Total Blocks : 262144 Invalid Blocks : 0
Heartbeat CPU 4 instructions: 260000000 cycles: 149767297 heartbeat IPC: 1.07425 cumulative IPC: 1.05772 (Simulation time: 106 hr 31 min 44 sec) 
 Total Blocks : 262144 Invalid Blocks : 0
Heartbeat CPU 5 instructions: 260000000 cycles: 149767968 heartbeat IPC: 1.0775 cumulative IPC: 1.05769 (Simulation time: 106 hr 31 min 47 sec) 
 Total Blocks : 262144 Invalid Blocks : 0
Heartbeat CPU 7 instructions: 260000000 cycles: 149769732 heartbeat IPC: 1.07538 cumulative IPC: 1.05771 (Simulation time: 106 hr 31 min 50 sec) 
 Total Blocks : 262144 Invalid Blocks : 0
Heartbeat CPU 1 instructions: 270000003 cycles: 158904151 heartbeat IPC: 1.07876 cumulative IPC: 1.0628 (Simulation time: 110 hr 58 min 15 sec) 
 Total Blocks : 262144 Invalid Blocks : 0
Heartbeat CPU 3 instructions: 270000003 cycles: 159034566 heartbeat IPC: 1.07248 cumulative IPC: 1.06071 (Simulation time: 111 hr 2 min 2 sec) 
 Total Blocks : 262144 Invalid Blocks : 0
Heartbeat CPU 2 instructions: 270000003 cycles: 159049786 heartbeat IPC: 1.07568 cumulative IPC: 1.06047 (Simulation time: 111 hr 2 min 21 sec) 
 Total Blocks : 262144 Invalid Blocks : 0
Heartbeat CPU 4 instructions: 270000003 cycles: 159063290 heartbeat IPC: 1.07573 cumulative IPC: 1.06025 (Simulation time: 111 hr 2 min 48 sec) 
 Total Blocks : 262144 Invalid Blocks : 0
Heartbeat CPU 0 instructions: 270000003 cycles: 159064759 heartbeat IPC: 1.07368 cumulative IPC: 1.06022 (Simulation time: 111 hr 2 min 52 sec) 
 Total Blocks : 262144 Invalid Blocks : 0
Heartbeat CPU 6 instructions: 270000003 cycles: 159093888 heartbeat IPC: 1.07052 cumulative IPC: 1.05976 (Simulation time: 111 hr 3 min 39 sec) 
 Total Blocks : 262144 Invalid Blocks : 0
Heartbeat CPU 7 instructions: 270000003 cycles: 159095010 heartbeat IPC: 1.07235 cumulative IPC: 1.05977 (Simulation time: 111 hr 3 min 40 sec) 
 Total Blocks : 262144 Invalid Blocks : 0
Heartbeat CPU 5 instructions: 270000003 cycles: 159109726 heartbeat IPC: 1.07046 cumulative IPC: 1.0595 (Simulation time: 111 hr 4 min 4 sec) 
 Total Blocks : 262144 Invalid Blocks : 0
Heartbeat CPU 1 instructions: 280000000 cycles: 168151317 heartbeat IPC: 1.08141 cumulative IPC: 1.0651 (Simulation time: 115 hr 17 min 5 sec) 
 Total Blocks : 262144 Invalid Blocks : 0
Heartbeat CPU 7 instructions: 280000000 cycles: 168345840 heartbeat IPC: 1.08098 cumulative IPC: 1.06238 (Simulation time: 115 hr 22 min 20 sec) 
 Total Blocks : 262144 Invalid Blocks : 0
Heartbeat CPU 2 instructions: 280000000 cycles: 168346516 heartbeat IPC: 1.07565 cumulative IPC: 1.06234 (Simulation time: 115 hr 22 min 22 sec) 
 Total Blocks : 262144 Invalid Blocks : 0
Heartbeat CPU 3 instructions: 280000000 cycles: 168348018 heartbeat IPC: 1.07372 cumulative IPC: 1.06232 (Simulation time: 115 hr 22 min 26 sec) 
 Total Blocks : 262144 Invalid Blocks : 0
Heartbeat CPU 0 instructions: 280000000 cycles: 168377535 heartbeat IPC: 1.07379 cumulative IPC: 1.0619 (Simulation time: 115 hr 23 min 13 sec) 
 Total Blocks : 262144 Invalid Blocks : 0
Heartbeat CPU 4 instructions: 280000000 cycles: 168391006 heartbeat IPC: 1.07207 cumulative IPC: 1.06172 (Simulation time: 115 hr 23 min 33 sec) 
 Total Blocks : 262144 Invalid Blocks : 0
Heartbeat CPU 5 instructions: 280000000 cycles: 168406637 heartbeat IPC: 1.07563 cumulative IPC: 1.06149 (Simulation time: 115 hr 24 min 0 sec) 
 Total Blocks : 262144 Invalid Blocks : 0
Heartbeat CPU 6 instructions: 280000000 cycles: 168421379 heartbeat IPC: 1.0721 cumulative IPC: 1.06129 (Simulation time: 115 hr 24 min 23 sec) 
 Total Blocks : 262144 Invalid Blocks : 0
Heartbeat CPU 1 instructions: 290000002 cycles: 177421965 heartbeat IPC: 1.07867 cumulative IPC: 1.06659 (Simulation time: 119 hr 31 min 43 sec) 
 Total Blocks : 262144 Invalid Blocks : 0
Heartbeat CPU 3 instructions: 290000002 cycles: 177642171 heartbeat IPC: 1.07595 cumulative IPC: 1.06382 (Simulation time: 119 hr 37 min 39 sec) 
 Total Blocks : 262144 Invalid Blocks : 0
Heartbeat CPU 7 instructions: 290000002 cycles: 177656938 heartbeat IPC: 1.07399 cumulative IPC: 1.06366 (Simulation time: 119 hr 38 min 2 sec) 
 Total Blocks : 262144 Invalid Blocks : 0
Heartbeat CPU 2 instructions: 290000002 cycles: 177671918 heartbeat IPC: 1.07234 cumulative IPC: 1.06344 (Simulation time: 119 hr 38 min 25 sec) 
 Total Blocks : 262144 Invalid Blocks : 0
Heartbeat CPU 0 instructions: 290000002 cycles: 177702061 heartbeat IPC: 1.07244 cumulative IPC: 1.06306 (Simulation time: 119 hr 39 min 9 sec) 
 Total Blocks : 262144 Invalid Blocks : 0
Heartbeat CPU 5 instructions: 290000002 cycles: 177717947 heartbeat IPC: 1.07396 cumulative IPC: 1.06286 (Simulation time: 119 hr 39 min 30 sec) 
 Total Blocks : 262144 Invalid Blocks : 0
Heartbeat CPU 4 instructions: 290000002 cycles: 177718253 heartbeat IPC: 1.07213 cumulative IPC: 1.06286 (Simulation time: 119 hr 39 min 30 sec) 
 Total Blocks : 262144 Invalid Blocks : 0
Heartbeat CPU 6 instructions: 290000002 cycles: 177747119 heartbeat IPC: 1.0723 cumulative IPC: 1.0625 (Simulation time: 119 hr 40 min 13 sec) 
 Total Blocks : 262144 Invalid Blocks : 0
Heartbeat CPU 1 instructions: 300000001 cycles: 186641830 heartbeat IPC: 1.08461 cumulative IPC: 1.06836 (Simulation time: 123 hr 46 min 36 sec) 
 Total Blocks : 262144 Invalid Blocks : 0
Heartbeat CPU 7 instructions: 300000001 cycles: 186925554 heartbeat IPC: 1.07891 cumulative IPC: 1.06516 (Simulation time: 123 hr 54 min 19 sec) 
 Total Blocks : 262144 Invalid Blocks : 0
Heartbeat CPU 3 instructions: 300000001 cycles: 186940366 heartbeat IPC: 1.07548 cumulative IPC: 1.06497 (Simulation time: 123 hr 54 min 44 sec) 
 Total Blocks : 262144 Invalid Blocks : 0
Heartbeat CPU 2 instructions: 300000001 cycles: 186970383 heartbeat IPC: 1.07545 cumulative IPC: 1.06463 (Simulation time: 123 hr 55 min 28 sec) 
 Total Blocks : 262144 Invalid Blocks : 0
Heartbeat CPU 4 instructions: 300000001 cycles: 186984668 heartbeat IPC: 1.07917 cumulative IPC: 1.06447 (Simulation time: 123 hr 55 min 46 sec) 
 Total Blocks : 262144 Invalid Blocks : 0
Heartbeat CPU 0 instructions: 300000001 cycles: 187000343 heartbeat IPC: 1.07547 cumulative IPC: 1.06429 (Simulation time: 123 hr 56 min 10 sec) 
 Total Blocks : 262144 Invalid Blocks : 0
Heartbeat CPU 5 instructions: 300000001 cycles: 187015603 heartbeat IPC: 1.07554 cumulative IPC: 1.06411 (Simulation time: 123 hr 56 min 37 sec) 
 Total Blocks : 262144 Invalid Blocks : 0
Heartbeat CPU 6 instructions: 300000001 cycles: 187046283 heartbeat IPC: 1.07537 cumulative IPC: 1.06377 (Simulation time: 123 hr 57 min 21 sec) 
 Total Blocks : 262144 Invalid Blocks : 0
Heartbeat CPU 1 instructions: 310000002 cycles: 195888496 heartbeat IPC: 1.08147 cumulative IPC: 1.06954 (Simulation time: 128 hr 4 min 11 sec) 
 Total Blocks : 262144 Invalid Blocks : 0
Heartbeat CPU 7 instructions: 310000002 cycles: 196200932 heartbeat IPC: 1.07812 cumulative IPC: 1.06633 (Simulation time: 128 hr 12 min 36 sec) 
 Total Blocks : 262144 Invalid Blocks : 0
Heartbeat CPU 3 instructions: 310000002 cycles: 196215906 heartbeat IPC: 1.0781 cumulative IPC: 1.06615 (Simulation time: 128 hr 13 min 8 sec) 
 Total Blocks : 262144 Invalid Blocks : 0
Heartbeat CPU 2 instructions: 310000002 cycles: 196246422 heartbeat IPC: 1.07805 cumulative IPC: 1.06584 (Simulation time: 128 hr 13 min 53 sec) 
 Total Blocks : 262144 Invalid Blocks : 0
Heartbeat CPU 4 instructions: 310000002 cycles: 196261742 heartbeat IPC: 1.07793 cumulative IPC: 1.06568 (Simulation time: 128 hr 14 min 12 sec) 
 Total Blocks : 262144 Invalid Blocks : 0
Heartbeat CPU 0 instructions: 310000002 cycles: 196291755 heartbeat IPC: 1.07626 cumulative IPC: 1.06536 (Simulation time: 128 hr 14 min 56 sec) 
 Total Blocks : 262144 Invalid Blocks : 0
Heartbeat CPU 6 instructions: 310000002 cycles: 196306569 heartbeat IPC: 1.07988 cumulative IPC: 1.06522 (Simulation time: 128 hr 15 min 22 sec) 
 Total Blocks : 262144 Invalid Blocks : 0
Heartbeat CPU 5 instructions: 310000002 cycles: 196307088 heartbeat IPC: 1.07625 cumulative IPC: 1.06521 (Simulation time: 128 hr 15 min 22 sec) 
 Total Blocks : 262144 Invalid Blocks : 0
Heartbeat CPU 1 instructions: 320000000 cycles: 205190992 heartbeat IPC: 1.07498 cumulative IPC: 1.06999 (Simulation time: 132 hr 20 min 58 sec) 
 Total Blocks : 262144 Invalid Blocks : 0
Heartbeat CPU 3 instructions: 320000000 cycles: 205534313 heartbeat IPC: 1.07314 cumulative IPC: 1.06673 (Simulation time: 132 hr 29 min 52 sec) 
 Total Blocks : 262144 Invalid Blocks : 0
Heartbeat CPU 7 instructions: 320000000 cycles: 205550329 heartbeat IPC: 1.06959 cumulative IPC: 1.0666 (Simulation time: 132 hr 30 min 16 sec) 
 Total Blocks : 262144 Invalid Blocks : 0
Heartbeat CPU 4 instructions: 320000000 cycles: 205610598 heartbeat IPC: 1.06965 cumulative IPC: 1.06601 (Simulation time: 132 hr 31 min 50 sec) 
 Total Blocks : 262144 Invalid Blocks : 0
Heartbeat CPU 2 instructions: 320000000 cycles: 205611013 heartbeat IPC: 1.06785 cumulative IPC: 1.06601 (Simulation time: 132 hr 31 min 51 sec) 
 Total Blocks : 262144 Invalid Blocks : 0
Heartbeat CPU 0 instructions: 320000000 cycles: 205640446 heartbeat IPC: 1.06967 cumulative IPC: 1.06572 (Simulation time: 132 hr 32 min 35 sec) 
 Total Blocks : 262144 Invalid Blocks : 0
Heartbeat CPU 6 instructions: 320000000 cycles: 205641364 heartbeat IPC: 1.07126 cumulative IPC: 1.06572 (Simulation time: 132 hr 32 min 36 sec) 
 Total Blocks : 262144 Invalid Blocks : 0
Heartbeat CPU 5 instructions: 320000000 cycles: 205657100 heartbeat IPC: 1.06952 cumulative IPC: 1.06556 (Simulation time: 132 hr 33 min 6 sec) 
 Total Blocks : 262144 Invalid Blocks : 0
Heartbeat CPU 1 instructions: 330000000 cycles: 214484654 heartbeat IPC: 1.076 cumulative IPC: 1.07045 (Simulation time: 136 hr 26 min 48 sec) 
 Total Blocks : 262144 Invalid Blocks : 0
Heartbeat CPU 3 instructions: 330000000 cycles: 214852107 heartbeat IPC: 1.07322 cumulative IPC: 1.06723 (Simulation time: 136 hr 36 min 27 sec) 
 Total Blocks : 262144 Invalid Blocks : 0
Heartbeat CPU 7 instructions: 330000000 cycles: 214895236 heartbeat IPC: 1.0701 cumulative IPC: 1.06687 (Simulation time: 136 hr 37 min 43 sec) 
 Total Blocks : 262144 Invalid Blocks : 0
Heartbeat CPU 4 instructions: 330000000 cycles: 214938977 heartbeat IPC: 1.072 cumulative IPC: 1.06647 (Simulation time: 136 hr 38 min 58 sec) 
 Total Blocks : 262144 Invalid Blocks : 0
Heartbeat CPU 2 instructions: 330000000 cycles: 214940376 heartbeat IPC: 1.07188 cumulative IPC: 1.06646 (Simulation time: 136 hr 38 min 59 sec) 
 Total Blocks : 262144 Invalid Blocks : 0
Heartbeat CPU 0 instructions: 330000000 cycles: 214954223 heartbeat IPC: 1.07368 cumulative IPC: 1.06633 (Simulation time: 136 hr 39 min 23 sec) 
 Total Blocks : 262144 Invalid Blocks : 0
Heartbeat CPU 6 instructions: 330000000 cycles: 214981968 heartbeat IPC: 1.07059 cumulative IPC: 1.06609 (Simulation time: 136 hr 40 min 7 sec) 
 Total Blocks : 262144 Invalid Blocks : 0
Heartbeat CPU 5 instructions: 330000000 cycles: 214995890 heartbeat IPC: 1.0708 cumulative IPC: 1.06597 (Simulation time: 136 hr 40 min 29 sec) 
 Total Blocks : 262144 Invalid Blocks : 0
Heartbeat CPU 1 instructions: 340000000 cycles: 223631169 heartbeat IPC: 1.09331 cumulative IPC: 1.07205 (Simulation time: 140 hr 26 min 24 sec) 
 Total Blocks : 262144 Invalid Blocks : 0
Heartbeat CPU 3 instructions: 340000000 cycles: 224058612 heartbeat IPC: 1.08619 cumulative IPC: 1.06856 (Simulation time: 140 hr 37 min 31 sec) 
 Total Blocks : 262144 Invalid Blocks : 0
Heartbeat CPU 7 instructions: 340000000 cycles: 224121181 heartbeat IPC: 1.0839 cumulative IPC: 1.06807 (Simulation time: 140 hr 39 min 8 sec) 
 Total Blocks : 262144 Invalid Blocks : 0
Heartbeat CPU 2 instructions: 340000000 cycles: 224155028 heartbeat IPC: 1.08523 cumulative IPC: 1.06778 (Simulation time: 140 hr 40 min 10 sec) 
 Total Blocks : 262144 Invalid Blocks : 0
Heartbeat CPU 0 instructions: 340000000 cycles: 224196569 heartbeat IPC: 1.08198 cumulative IPC: 1.06743 (Simulation time: 140 hr 41 min 14 sec) 
 Total Blocks : 262144 Invalid Blocks : 0
Heartbeat CPU 4 instructions: 340000000 cycles: 224197513 heartbeat IPC: 1.08008 cumulative IPC: 1.06743 (Simulation time: 140 hr 41 min 16 sec) 
 Total Blocks : 262144 Invalid Blocks : 0
Heartbeat CPU 5 instructions: 340000000 cycles: 224211541 heartbeat IPC: 1.08511 cumulative IPC: 1.06731 (Simulation time: 140 hr 41 min 37 sec) 
 Total Blocks : 262144 Invalid Blocks : 0
Heartbeat CPU 6 instructions: 340000000 cycles: 224211741 heartbeat IPC: 1.08345 cumulative IPC: 1.06731 (Simulation time: 140 hr 41 min 37 sec) 
 Total Blocks : 262144 Invalid Blocks : 0
Heartbeat CPU 1 instructions: 350000001 cycles: 232736834 heartbeat IPC: 1.09822 cumulative IPC: 1.07376 (Simulation time: 144 hr 25 min 43 sec) 
 Total Blocks : 262144 Invalid Blocks : 0
Heartbeat CPU 3 instructions: 350000001 cycles: 233160645 heartbeat IPC: 1.09866 cumulative IPC: 1.07052 (Simulation time: 144 hr 36 min 51 sec) 
 Total Blocks : 262144 Invalid Blocks : 0
Heartbeat CPU 7 instructions: 350000001 cycles: 233324358 heartbeat IPC: 1.08658 cumulative IPC: 1.06928 (Simulation time: 144 hr 41 min 0 sec) 
 Total Blocks : 262144 Invalid Blocks : 0
Heartbeat CPU 2 instructions: 350000001 cycles: 233339201 heartbeat IPC: 1.08883 cumulative IPC: 1.06915 (Simulation time: 144 hr 41 min 20 sec) 
 Total Blocks : 262144 Invalid Blocks : 0
Heartbeat CPU 4 instructions: 350000001 cycles: 233415886 heartbeat IPC: 1.08479 cumulative IPC: 1.06857 (Simulation time: 144 hr 43 min 16 sec) 
 Total Blocks : 262144 Invalid Blocks : 0
Heartbeat CPU 5 instructions: 350000001 cycles: 233427669 heartbeat IPC: 1.08505 cumulative IPC: 1.06848 (Simulation time: 144 hr 43 min 38 sec) 
 Total Blocks : 262144 Invalid Blocks : 0
Heartbeat CPU 0 instructions: 350000001 cycles: 233428677 heartbeat IPC: 1.08318 cumulative IPC: 1.06847 (Simulation time: 144 hr 43 min 38 sec) 
 Total Blocks : 262144 Invalid Blocks : 0
Heartbeat CPU 6 instructions: 350000001 cycles: 233429077 heartbeat IPC: 1.08491 cumulative IPC: 1.06847 (Simulation time: 144 hr 43 min 38 sec) 
 Total Blocks : 262144 Invalid Blocks : 0
Heartbeat CPU 1 instructions: 360000001 cycles: 241771780 heartbeat IPC: 1.10681 cumulative IPC: 1.07577 (Simulation time: 148 hr 21 min 24 sec) 
 Total Blocks : 262144 Invalid Blocks : 0
Heartbeat CPU 3 instructions: 360000001 cycles: 242183670 heartbeat IPC: 1.10828 cumulative IPC: 1.0728 (Simulation time: 148 hr 32 min 47 sec) 
 Total Blocks : 262144 Invalid Blocks : 0
Heartbeat CPU 7 instructions: 360000001 cycles: 242352439 heartbeat IPC: 1.10766 cumulative IPC: 1.0716 (Simulation time: 148 hr 37 min 18 sec) 
 Total Blocks : 262144 Invalid Blocks : 0
Heartbeat CPU 2 instructions: 360000001 cycles: 242361584 heartbeat IPC: 1.10835 cumulative IPC: 1.07152 (Simulation time: 148 hr 37 min 28 sec) 
 Total Blocks : 262144 Invalid Blocks : 0
Heartbeat CPU 0 instructions: 360000001 cycles: 242482281 heartbeat IPC: 1.10453 cumulative IPC: 1.07065 (Simulation time: 148 hr 40 min 51 sec) 
 Total Blocks : 262144 Invalid Blocks : 0
Heartbeat CPU 4 instructions: 360000001 cycles: 242485321 heartbeat IPC: 1.1026 cumulative IPC: 1.07064 (Simulation time: 148 hr 40 min 56 sec) 
 Total Blocks : 262144 Invalid Blocks : 0
Heartbeat CPU 5 instructions: 360000001 cycles: 242487701 heartbeat IPC: 1.10375 cumulative IPC: 1.07061 (Simulation time: 148 hr 40 min 58 sec) 
 Total Blocks : 262144 Invalid Blocks : 0
Heartbeat CPU 6 instructions: 360000001 cycles: 242489475 heartbeat IPC: 1.1037 cumulative IPC: 1.07061 (Simulation time: 148 hr 40 min 59 sec) 
 Total Blocks : 262144 Invalid Blocks : 0
Heartbeat CPU 1 instructions: 370000001 cycles: 250852097 heartbeat IPC: 1.10128 cumulative IPC: 1.07724 (Simulation time: 152 hr 24 min 18 sec) 
 Total Blocks : 262144 Invalid Blocks : 0
Heartbeat CPU 3 instructions: 370000001 cycles: 251232606 heartbeat IPC: 1.1051 cumulative IPC: 1.07465 (Simulation time: 152 hr 34 min 47 sec) 
 Total Blocks : 262144 Invalid Blocks : 0
Heartbeat CPU 7 instructions: 370000001 cycles: 251417780 heartbeat IPC: 1.1031 cumulative IPC: 1.0734 (Simulation time: 152 hr 39 min 54 sec) 
 Total Blocks : 262144 Invalid Blocks : 0
Heartbeat CPU 2 instructions: 370000001 cycles: 251503290 heartbeat IPC: 1.09389 cumulative IPC: 1.07281 (Simulation time: 152 hr 42 min 16 sec) 
 Total Blocks : 262144 Invalid Blocks : 0
Heartbeat CPU 6 instructions: 370000001 cycles: 251603399 heartbeat IPC: 1.09722 cumulative IPC: 1.07214 (Simulation time: 152 hr 45 min 1 sec) 
 Total Blocks : 262144 Invalid Blocks : 0
Heartbeat CPU 4 instructions: 370000001 cycles: 251617754 heartbeat IPC: 1.095 cumulative IPC: 1.07204 (Simulation time: 152 hr 45 min 24 sec) 
 Total Blocks : 262144 Invalid Blocks : 0
Heartbeat CPU 0 instructions: 370000001 cycles: 251632750 heartbeat IPC: 1.09284 cumulative IPC: 1.07193 (Simulation time: 152 hr 45 min 48 sec) 
 Total Blocks : 262144 Invalid Blocks : 0
Heartbeat CPU 5 instructions: 370000001 cycles: 251633785 heartbeat IPC: 1.09336 cumulative IPC: 1.07193 (Simulation time: 152 hr 45 min 51 sec) 
 Total Blocks : 262144 Invalid Blocks : 0
Heartbeat CPU 1 instructions: 380000001 cycles: 259902255 heartbeat IPC: 1.10495 cumulative IPC: 1.07874 (Simulation time: 156 hr 33 min 39 sec) 
 Total Blocks : 262144 Invalid Blocks : 0
Heartbeat CPU 3 instructions: 380000001 cycles: 260267888 heartbeat IPC: 1.10677 cumulative IPC: 1.07638 (Simulation time: 156 hr 44 min 9 sec) 
 Total Blocks : 262144 Invalid Blocks : 0
Heartbeat CPU 7 instructions: 380000001 cycles: 260518625 heartbeat IPC: 1.0988 cumulative IPC: 1.07478 (Simulation time: 156 hr 50 min 59 sec) 
 Total Blocks : 262144 Invalid Blocks : 0
Heartbeat CPU 2 instructions: 380000001 cycles: 260576370 heartbeat IPC: 1.10216 cumulative IPC: 1.0744 (Simulation time: 156 hr 52 min 41 sec) 
 Total Blocks : 262144 Invalid Blocks : 0
Heartbeat CPU 6 instructions: 380000001 cycles: 260681052 heartbeat IPC: 1.10161 cumulative IPC: 1.07373 (Simulation time: 156 hr 55 min 27 sec) 
 Total Blocks : 262144 Invalid Blocks : 0
Heartbeat CPU 4 instructions: 380000001 cycles: 260695496 heartbeat IPC: 1.1016 cumulative IPC: 1.07364 (Simulation time: 156 hr 55 min 56 sec) 
 Total Blocks : 262144 Invalid Blocks : 0
Heartbeat CPU 0 instructions: 380000001 cycles: 260711378 heartbeat IPC: 1.10149 cumulative IPC: 1.07353 (Simulation time: 156 hr 56 min 14 sec) 
 Total Blocks : 262144 Invalid Blocks : 0
Heartbeat CPU 5 instructions: 380000001 cycles: 260741011 heartbeat IPC: 1.09803 cumulative IPC: 1.07334 (Simulation time: 156 hr 57 min 0 sec) 
 Total Blocks : 262144 Invalid Blocks : 0
Heartbeat CPU 1 instructions: 390000001 cycles: 268959143 heartbeat IPC: 1.10413 cumulative IPC: 1.08005 (Simulation time: 160 hr 45 min 0 sec) 
 Total Blocks : 262144 Invalid Blocks : 0
Heartbeat CPU 3 instructions: 390000001 cycles: 269286608 heartbeat IPC: 1.1088 cumulative IPC: 1.07804 (Simulation time: 160 hr 54 min 0 sec) 
 Total Blocks : 262144 Invalid Blocks : 0
Heartbeat CPU 7 instructions: 390000001 cycles: 269529835 heartbeat IPC: 1.10973 cumulative IPC: 1.07657 (Simulation time: 161 hr 0 min 29 sec) 
 Total Blocks : 262144 Invalid Blocks : 0
Heartbeat CPU 2 instructions: 390000001 cycles: 269620763 heartbeat IPC: 1.10566 cumulative IPC: 1.076 (Simulation time: 161 hr 2 min 47 sec) 
 Total Blocks : 262144 Invalid Blocks : 0
Heartbeat CPU 0 instructions: 390000001 cycles: 269741101 heartbeat IPC: 1.10745 cumulative IPC: 1.07527 (Simulation time: 161 hr 5 min 51 sec) 
 Total Blocks : 262144 Invalid Blocks : 0
Heartbeat CPU 6 instructions: 390000001 cycles: 269741367 heartbeat IPC: 1.10371 cumulative IPC: 1.07527 (Simulation time: 161 hr 5 min 52 sec) 
 Total Blocks : 262144 Invalid Blocks : 0
Heartbeat CPU 4 instructions: 390000001 cycles: 269755892 heartbeat IPC: 1.1037 cumulative IPC: 1.07518 (Simulation time: 161 hr 6 min 17 sec) 
 Total Blocks : 262144 Invalid Blocks : 0
Heartbeat CPU 5 instructions: 390000001 cycles: 269815260 heartbeat IPC: 1.10202 cumulative IPC: 1.07482 (Simulation time: 161 hr 7 min 49 sec) 
 Total Blocks : 262144 Invalid Blocks : 0
Heartbeat CPU 1 instructions: 400000000 cycles: 277963013 heartbeat IPC: 1.11063 cumulative IPC: 1.08154 (Simulation time: 164 hr 45 min 7 sec) 
 Total Blocks : 262144 Invalid Blocks : 0
Finished CPU 1 instructions: 200000001 cycles: 184922357 cumulative IPC: 1.08153 (Simulation time: 164 hr 45 min 11 sec) 
Heartbeat CPU 3 instructions: 400000000 cycles: 278334668 heartbeat IPC: 1.10521 cumulative IPC: 1.07937 (Simulation time: 164 hr 55 min 49 sec) 
 Total Blocks : 262144 Invalid Blocks : 0
Finished CPU 3 instructions: 200000000 cycles: 185293646 cumulative IPC: 1.07937 (Simulation time: 164 hr 55 min 51 sec) 
Heartbeat CPU 7 instructions: 400000000 cycles: 278581797 heartbeat IPC: 1.10473 cumulative IPC: 1.07794 (Simulation time: 165 hr 2 min 34 sec) 
 Total Blocks : 262144 Invalid Blocks : 0
Finished CPU 7 instructions: 200000003 cycles: 185538637 cumulative IPC: 1.07794 (Simulation time: 165 hr 2 min 34 sec) 
Heartbeat CPU 2 instructions: 400000000 cycles: 278643314 heartbeat IPC: 1.10833 cumulative IPC: 1.07757 (Simulation time: 165 hr 4 min 9 sec) 
 Total Blocks : 262144 Invalid Blocks : 0
Finished CPU 2 instructions: 200000000 cycles: 185603319 cumulative IPC: 1.07757 (Simulation time: 165 hr 4 min 15 sec) 
Heartbeat CPU 4 instructions: 400000000 cycles: 278786985 heartbeat IPC: 1.10729 cumulative IPC: 1.07674 (Simulation time: 165 hr 7 min 59 sec) 
 Total Blocks : 262144 Invalid Blocks : 0
Heartbeat CPU 0 instructions: 400000000 cycles: 278788663 heartbeat IPC: 1.10527 cumulative IPC: 1.07673 (Simulation time: 165 hr 8 min 3 sec) 
 Total Blocks : 262144 Invalid Blocks : 0
Finished CPU 4 instructions: 200000000 cycles: 185746053 cumulative IPC: 1.07674 (Simulation time: 165 hr 8 min 5 sec) 
Finished CPU 0 instructions: 200000001 cycles: 185748226 cumulative IPC: 1.07673 (Simulation time: 165 hr 8 min 7 sec) 
Heartbeat CPU 6 instructions: 400000000 cycles: 278817412 heartbeat IPC: 1.1018 cumulative IPC: 1.07657 (Simulation time: 165 hr 8 min 50 sec) 
 Total Blocks : 262144 Invalid Blocks : 0
Finished CPU 6 instructions: 200000000 cycles: 185776611 cumulative IPC: 1.07656 (Simulation time: 165 hr 8 min 51 sec) 
Heartbeat CPU 5 instructions: 400000000 cycles: 278876649 heartbeat IPC: 1.10358 cumulative IPC: 1.07622 (Simulation time: 165 hr 10 min 20 sec) 
 Total Blocks : 262144 Invalid Blocks : 0
Finished CPU 5 instructions: 200000001 cycles: 185836484 cumulative IPC: 1.07621 (Simulation time: 165 hr 10 min 28 sec) 

CPU 0 Branch Prediction Accuracy: 99.93% MPKI: 0.0351476 Average ROB Occupancy at Mispredict: 340.053

CPU 1 Branch Prediction Accuracy: 99.93% MPKI: 0.0351522 Average ROB Occupancy at Mispredict: 339.988

CPU 2 Branch Prediction Accuracy: 99.93% MPKI: 0.0351449 Average ROB Occupancy at Mispredict: 340.092

CPU 3 Branch Prediction Accuracy: 99.93% MPKI: 0.0351547 Average ROB Occupancy at Mispredict: 339.934

CPU 4 Branch Prediction Accuracy: 99.93% MPKI: 0.0351477 Average ROB Occupancy at Mispredict: 340.055

CPU 5 Branch Prediction Accuracy: 99.93% MPKI: 0.0351495 Average ROB Occupancy at Mispredict: 340.013

CPU 6 Branch Prediction Accuracy: 99.93% MPKI: 0.0351481 Average ROB Occupancy at Mispredict: 340.015

CPU 7 Branch Prediction Accuracy: 99.93% MPKI: 0.0351436 Average ROB Occupancy at Mispredict: 340.064

ChampSim completed all CPUs

Total Simulation Statistics (not including warmup)

CPU 0 cumulative IPC: 1.07673 instructions: 200096488 cycles: 185836484
ITLB TOTAL     ACCESS: 37207094  HIT: 37207094  MISS:     0  HIT %:   100  MISS %:     0  AVERAGE MISS PENALTY: 0
ITLB LOAD      ACCESS: 37207094  HIT: 37207094  MISS:     0  HIT %:   100  MISS %:     0  AVERAGE MISS PENALTY: 0
ITLB RFO       ACCESS:     0  HIT:     0  MISS:     0  HIT %:     0  MISS %:     0  AVERAGE MISS PENALTY: 0
ITLB PREFETCH  ACCESS:     0  HIT:     0  MISS:     0  HIT %:     0  MISS %:     0  AVERAGE MISS PENALTY: 0
ITLB WRITEBACK ACCESS:     0  HIT:     0  MISS:     0  HIT %:     0  MISS %:     0  AVERAGE MISS PENALTY: 0

DTLB TOTAL     ACCESS: 58116151  HIT: 58033486  MISS: 82665  HIT %: 99.8578  MISS %: 0.142241  AVERAGE MISS PENALTY: 187.839
DTLB LOAD      ACCESS: 51439998  HIT: 51357707  MISS: 82291  HIT %: 99.84  MISS %: 0.159975  AVERAGE MISS PENALTY: 188.252
DTLB RFO       ACCESS: 6676153  HIT: 6675779  MISS:   374  HIT %: 99.9944  MISS %: 0.00560203  AVERAGE MISS PENALTY: 96.9652
DTLB PREFETCH  ACCESS:     0  HIT:     0  MISS:     0  HIT %:     0  MISS %:     0  AVERAGE MISS PENALTY: 0
DTLB WRITEBACK ACCESS:     0  HIT:     0  MISS:     0  HIT %:     0  MISS %:     0  AVERAGE MISS PENALTY: 0

STLB TOTAL     ACCESS: 82665  HIT: 16873  MISS: 65792  HIT %: 20.4113  MISS %: 79.5887  AVERAGE MISS PENALTY: 100
STLB LOAD      ACCESS: 82291  HIT: 16826  MISS: 65465  HIT %: 20.447  MISS %: 79.553  AVERAGE MISS PENALTY: 100
STLB RFO       ACCESS:   374  HIT:    47  MISS:   327  HIT %: 12.5668  MISS %: 87.4332  AVERAGE MISS PENALTY: 100
STLB PREFETCH  ACCESS:     0  HIT:     0  MISS:     0  HIT %:     0  MISS %:     0  AVERAGE MISS PENALTY: 0
STLB WRITEBACK ACCESS:     0  HIT:     0  MISS:     0  HIT %:     0  MISS %:     0  AVERAGE MISS PENALTY: 0

L1D TOTAL     ACCESS: 64754034  HIT: 62057347  MISS: 2696687  HIT %: 95.8355  MISS %: 4.16451  AVERAGE MISS PENALTY: 2.51177e+06
L1D LOAD      ACCESS: 50376864  HIT: 50241416  MISS: 135448  HIT %: 99.7311  MISS %: 0.268869  AVERAGE MISS PENALTY: 5.00065e+07
L1D RFO       ACCESS: 6705616  HIT: 6685148  MISS: 20468  HIT %: 99.6948  MISS %: 0.305237  AVERAGE MISS PENALTY: 314.507
L1D PREFETCH  ACCESS: 7671554  HIT: 5130783  MISS: 2540771  HIT %: 66.8806  MISS %: 33.1194  AVERAGE MISS PENALTY: 70.2067
L1D WRITEBACK ACCESS:     0  HIT:     0  MISS:     0  HIT %:     0  MISS %:     0  AVERAGE MISS PENALTY: 0

L1I TOTAL     ACCESS: 47852440  HIT: 47852440  MISS:     0  HIT %:   100  MISS %:     0  AVERAGE MISS PENALTY: 0
L1I LOAD      ACCESS: 47852440  HIT: 47852440  MISS:     0  HIT %:   100  MISS %:     0  AVERAGE MISS PENALTY: 0
L1I RFO       ACCESS:     0  HIT:     0  MISS:     0  HIT %:     0  MISS %:     0  AVERAGE MISS PENALTY: 0
L1I PREFETCH  ACCESS:     0  HIT:     0  MISS:     0  HIT %:     0  MISS %:     0  AVERAGE MISS PENALTY: 0
L1I WRITEBACK ACCESS:     0  HIT:     0  MISS:     0  HIT %:     0  MISS %:     0  AVERAGE MISS PENALTY: 0

L2C TOTAL     ACCESS: 6349979  HIT: 3621461  MISS: 2728518  HIT %: 57.0311  MISS %: 42.9689  AVERAGE MISS PENALTY: 2.33173e+06
L2C LOAD      ACCESS: 132475  HIT: 10055  MISS: 122420  HIT %: 7.59011  MISS %: 92.4099  AVERAGE MISS PENALTY: 5.19624e+07
L2C RFO       ACCESS: 20468  HIT:   605  MISS: 19863  HIT %: 2.95583  MISS %: 97.0442  AVERAGE MISS PENALTY: 306.338
L2C PREFETCH  ACCESS: 6146016  HIT: 3573590  MISS: 2572426  HIT %: 58.1448  MISS %: 41.8552  AVERAGE MISS PENALTY: 354.513
L2C WRITEBACK ACCESS: 51020  HIT: 37211  MISS: 13809  HIT %: 72.9341  MISS %: 27.0659  AVERAGE MISS PENALTY: 0


LLC0 TOTAL     ACCESS: 340059  HIT: 30336  MISS: 309723  HIT %: 8.9208  MISS %: 91.0792  AVERAGE MISS PENALTY: 355.969
LLC0 LOAD      ACCESS: 44959  HIT:  4916  MISS: 40043  HIT %: 10.9344  MISS %: 89.0656  AVERAGE MISS PENALTY: 364.197
LLC0 RFO       ACCESS:  2476  HIT:     1  MISS:  2475  HIT %: 0.0403877  MISS %: 99.9596  AVERAGE MISS PENALTY: 257.253
LLC0 PREFETCH  ACCESS: 289890  HIT: 24024  MISS: 265866  HIT %: 8.28728  MISS %: 91.7127  AVERAGE MISS PENALTY: 357.441
LLC0 WRITEBACK ACCESS:  2734  HIT:  1395  MISS:  1339  HIT %: 51.0241  MISS %: 48.9759  AVERAGE MISS PENALTY: 0

LLC1 TOTAL     ACCESS: 340976  HIT: 33544  MISS: 307432  HIT %: 9.83764  MISS %: 90.1624  AVERAGE MISS PENALTY: 346.918
LLC1 LOAD      ACCESS:  6036  HIT:   688  MISS:  5348  HIT %: 11.3983  MISS %: 88.6017  AVERAGE MISS PENALTY: 423.408
LLC1 RFO       ACCESS:  2472  HIT:     2  MISS:  2470  HIT %: 0.0809061  MISS %: 99.9191  AVERAGE MISS PENALTY: 255.521
LLC1 PREFETCH  ACCESS: 329437  HIT: 31203  MISS: 298234  HIT %: 9.47161  MISS %: 90.5284  AVERAGE MISS PENALTY: 347.908
LLC1 WRITEBACK ACCESS:  3031  HIT:  1651  MISS:  1380  HIT %: 54.4705  MISS %: 45.5295  AVERAGE MISS PENALTY: 0

LLC2 TOTAL     ACCESS: 342013  HIT: 35161  MISS: 306852  HIT %: 10.2806  MISS %: 89.7194  AVERAGE MISS PENALTY: 393.498
LLC2 LOAD      ACCESS:  5987  HIT:   712  MISS:  5275  HIT %: 11.8924  MISS %: 88.1076  AVERAGE MISS PENALTY: 401.94
LLC2 RFO       ACCESS:  2625  HIT:   129  MISS:  2496  HIT %: 4.91429  MISS %: 95.0857  AVERAGE MISS PENALTY: 272.47
LLC2 PREFETCH  ACCESS: 330411  HIT: 32593  MISS: 297818  HIT %: 9.86438  MISS %: 90.1356  AVERAGE MISS PENALTY: 396.032
LLC2 WRITEBACK ACCESS:  2990  HIT:  1727  MISS:  1263  HIT %: 57.7592  MISS %: 42.2408  AVERAGE MISS PENALTY: 0

LLC3 TOTAL     ACCESS: 342433  HIT: 35577  MISS: 306856  HIT %: 10.3895  MISS %: 89.6105  AVERAGE MISS PENALTY: 388.382
LLC3 LOAD      ACCESS:  5971  HIT:   668  MISS:  5303  HIT %: 11.1874  MISS %: 88.8126  AVERAGE MISS PENALTY: 403.542
LLC3 RFO       ACCESS:  2462  HIT:     1  MISS:  2461  HIT %: 0.0406174  MISS %: 99.9594  AVERAGE MISS PENALTY: 273.983
LLC3 PREFETCH  ACCESS: 330901  HIT: 33142  MISS: 297759  HIT %: 10.0157  MISS %: 89.9843  AVERAGE MISS PENALTY: 390.796
LLC3 WRITEBACK ACCESS:  3099  HIT:  1766  MISS:  1333  HIT %: 56.9861  MISS %: 43.0139  AVERAGE MISS PENALTY: 0

LLC4 TOTAL     ACCESS: 343059  HIT: 35741  MISS: 307318  HIT %: 10.4183  MISS %: 89.5817  AVERAGE MISS PENALTY: 344.675
LLC4 LOAD      ACCESS:  6020  HIT:   747  MISS:  5273  HIT %: 12.4086  MISS %: 87.5914  AVERAGE MISS PENALTY: 444.682
LLC4 RFO       ACCESS:  2459  HIT:     1  MISS:  2458  HIT %: 0.0406669  MISS %: 99.9593  AVERAGE MISS PENALTY: 260.504
LLC4 PREFETCH  ACCESS: 331768  HIT: 33426  MISS: 298342  HIT %: 10.0751  MISS %: 89.9249  AVERAGE MISS PENALTY: 345.039
LLC4 WRITEBACK ACCESS:  2812  HIT:  1567  MISS:  1245  HIT %: 55.7255  MISS %: 44.2745  AVERAGE MISS PENALTY: 0

LLC5 TOTAL     ACCESS: 343258  HIT: 35808  MISS: 307450  HIT %: 10.4318  MISS %: 89.5682  AVERAGE MISS PENALTY: 339.385
LLC5 LOAD      ACCESS:  6081  HIT:   801  MISS:  5280  HIT %: 13.1722  MISS %: 86.8278  AVERAGE MISS PENALTY: 453.028
LLC5 RFO       ACCESS:  2456  HIT:     0  MISS:  2456  HIT %:     0  MISS %:   100  AVERAGE MISS PENALTY: 272.195
LLC5 PREFETCH  ACCESS: 331812  HIT: 33346  MISS: 298466  HIT %: 10.0497  MISS %: 89.9503  AVERAGE MISS PENALTY: 339.347
LLC5 WRITEBACK ACCESS:  2909  HIT:  1661  MISS:  1248  HIT %: 57.0987  MISS %: 42.9013  AVERAGE MISS PENALTY: 0

LLC6 TOTAL     ACCESS: 343062  HIT: 35251  MISS: 307811  HIT %: 10.2754  MISS %: 89.7246  AVERAGE MISS PENALTY: 378.02
LLC6 LOAD      ACCESS:  5959  HIT:   726  MISS:  5233  HIT %: 12.1833  MISS %: 87.8167  AVERAGE MISS PENALTY: 395.245
LLC6 RFO       ACCESS:  2458  HIT:     2  MISS:  2456  HIT %: 0.081367  MISS %: 99.9186  AVERAGE MISS PENALTY: 274.571
LLC6 PREFETCH  ACCESS: 331895  HIT: 33010  MISS: 298885  HIT %: 9.94592  MISS %: 90.0541  AVERAGE MISS PENALTY: 380.133
LLC6 WRITEBACK ACCESS:  2750  HIT:  1513  MISS:  1237  HIT %: 55.0182  MISS %: 44.9818  AVERAGE MISS PENALTY: 0

LLC7 TOTAL     ACCESS: 342908  HIT: 34391  MISS: 308517  HIT %: 10.0292  MISS %: 89.9708  AVERAGE MISS PENALTY: 378.595
LLC7 LOAD      ACCESS:  5823  HIT:   562  MISS:  5261  HIT %: 9.65138  MISS %: 90.3486  AVERAGE MISS PENALTY: 413.255
LLC7 RFO       ACCESS:  2455  HIT:     0  MISS:  2455  HIT %:     0  MISS %:   100  AVERAGE MISS PENALTY: 284.767
LLC7 PREFETCH  ACCESS: 331895  HIT: 32336  MISS: 299559  HIT %: 9.74284  MISS %: 90.2572  AVERAGE MISS PENALTY: 380.325
LLC7 WRITEBACK ACCESS:  2735  HIT:  1493  MISS:  1242  HIT %: 54.5887  MISS %: 45.4113  AVERAGE MISS PENALTY: 0

Total Rob stall cycles : 	139817895
Total Load Rob Stall cycles : 	44480906
Average Rob Stall cycles : 	 8
Average Load Rob Stall cycles : 	 14

CPU 1 cumulative IPC: 1.08165 instructions: 201009129 cycles: 185836484
ITLB TOTAL     ACCESS: 37372908  HIT: 37372908  MISS:     0  HIT %:   100  MISS %:     0  AVERAGE MISS PENALTY: 0
ITLB LOAD      ACCESS: 37372908  HIT: 37372908  MISS:     0  HIT %:   100  MISS %:     0  AVERAGE MISS PENALTY: 0
ITLB RFO       ACCESS:     0  HIT:     0  MISS:     0  HIT %:     0  MISS %:     0  AVERAGE MISS PENALTY: 0
ITLB PREFETCH  ACCESS:     0  HIT:     0  MISS:     0  HIT %:     0  MISS %:     0  AVERAGE MISS PENALTY: 0
ITLB WRITEBACK ACCESS:     0  HIT:     0  MISS:     0  HIT %:     0  MISS %:     0  AVERAGE MISS PENALTY: 0

DTLB TOTAL     ACCESS: 58379411  HIT: 58296372  MISS: 83039  HIT %: 99.8578  MISS %: 0.14224  AVERAGE MISS PENALTY: 187.812
DTLB LOAD      ACCESS: 51673074  HIT: 51590415  MISS: 82659  HIT %: 99.84  MISS %: 0.159965  AVERAGE MISS PENALTY: 188.233
DTLB RFO       ACCESS: 6706337  HIT: 6705957  MISS:   380  HIT %: 99.9943  MISS %: 0.00566628  AVERAGE MISS PENALTY: 96.1026
DTLB PREFETCH  ACCESS:     0  HIT:     0  MISS:     0  HIT %:     0  MISS %:     0  AVERAGE MISS PENALTY: 0
DTLB WRITEBACK ACCESS:     0  HIT:     0  MISS:     0  HIT %:     0  MISS %:     0  AVERAGE MISS PENALTY: 0

STLB TOTAL     ACCESS: 83039  HIT: 16943  MISS: 66096  HIT %: 20.4037  MISS %: 79.5963  AVERAGE MISS PENALTY: 100
STLB LOAD      ACCESS: 82659  HIT: 16892  MISS: 65767  HIT %: 20.4358  MISS %: 79.5642  AVERAGE MISS PENALTY: 100
STLB RFO       ACCESS:   380  HIT:    51  MISS:   329  HIT %: 13.4211  MISS %: 86.5789  AVERAGE MISS PENALTY: 100
STLB PREFETCH  ACCESS:     0  HIT:     0  MISS:     0  HIT %:     0  MISS %:     0  AVERAGE MISS PENALTY: 0
STLB WRITEBACK ACCESS:     0  HIT:     0  MISS:     0  HIT %:     0  MISS %:     0  AVERAGE MISS PENALTY: 0

L1D TOTAL     ACCESS: 65045296  HIT: 62336246  MISS: 2709050  HIT %: 95.8351  MISS %: 4.16487  AVERAGE MISS PENALTY: 2.53625e+06
L1D LOAD      ACCESS: 50604816  HIT: 50468433  MISS: 136383  HIT %: 99.7305  MISS %: 0.269506  AVERAGE MISS PENALTY: 5.03775e+07
L1D RFO       ACCESS: 6736425  HIT: 6715830  MISS: 20595  HIT %: 99.6943  MISS %: 0.305726  AVERAGE MISS PENALTY: 323.896
L1D PREFETCH  ACCESS: 7704055  HIT: 5151983  MISS: 2552072  HIT %: 66.8737  MISS %: 33.1263  AVERAGE MISS PENALTY: 70.421
L1D WRITEBACK ACCESS:     0  HIT:     0  MISS:     0  HIT %:     0  MISS %:     0  AVERAGE MISS PENALTY: 0

L1I TOTAL     ACCESS: 48066998  HIT: 48066998  MISS:     0  HIT %:   100  MISS %:     0  AVERAGE MISS PENALTY: 0
L1I LOAD      ACCESS: 48066998  HIT: 48066998  MISS:     0  HIT %:   100  MISS %:     0  AVERAGE MISS PENALTY: 0
L1I RFO       ACCESS:     0  HIT:     0  MISS:     0  HIT %:     0  MISS %:     0  AVERAGE MISS PENALTY: 0
L1I PREFETCH  ACCESS:     0  HIT:     0  MISS:     0  HIT %:     0  MISS %:     0  AVERAGE MISS PENALTY: 0
L1I WRITEBACK ACCESS:     0  HIT:     0  MISS:     0  HIT %:     0  MISS %:     0  AVERAGE MISS PENALTY: 0

L2C TOTAL     ACCESS: 6365074  HIT: 3623666  MISS: 2741408  HIT %: 56.9305  MISS %: 43.0695  AVERAGE MISS PENALTY: 2.33876e+06
L2C LOAD      ACCESS: 133240  HIT: 10182  MISS: 123058  HIT %: 7.64185  MISS %: 92.3582  AVERAGE MISS PENALTY: 5.20939e+07
L2C RFO       ACCESS: 20595  HIT:   603  MISS: 19992  HIT %: 2.9279  MISS %: 97.0721  AVERAGE MISS PENALTY: 316.152
L2C PREFETCH  ACCESS: 6159933  HIT: 3575897  MISS: 2584036  HIT %: 58.0509  MISS %: 41.9491  AVERAGE MISS PENALTY: 353.309
L2C WRITEBACK ACCESS: 51306  HIT: 36984  MISS: 14322  HIT %: 72.0851  MISS %: 27.9149  AVERAGE MISS PENALTY: 0


LLC0 TOTAL     ACCESS: 341612  HIT: 30283  MISS: 311329  HIT %: 8.86474  MISS %: 91.1353  AVERAGE MISS PENALTY: 357.567
LLC0 LOAD      ACCESS: 45154  HIT:  4830  MISS: 40324  HIT %: 10.6967  MISS %: 89.3033  AVERAGE MISS PENALTY: 348.245
LLC0 RFO       ACCESS:  2490  HIT:     0  MISS:  2490  HIT %:     0  MISS %:   100  AVERAGE MISS PENALTY: 277.529
LLC0 PREFETCH  ACCESS: 291196  HIT: 24073  MISS: 267123  HIT %: 8.26694  MISS %: 91.7331  AVERAGE MISS PENALTY: 361.584
LLC0 WRITEBACK ACCESS:  2772  HIT:  1380  MISS:  1392  HIT %: 49.7835  MISS %: 50.2165  AVERAGE MISS PENALTY: 0

LLC1 TOTAL     ACCESS: 342646  HIT: 33687  MISS: 308959  HIT %: 9.83143  MISS %: 90.1686  AVERAGE MISS PENALTY: 347.539
LLC1 LOAD      ACCESS:  6053  HIT:   686  MISS:  5367  HIT %: 11.3332  MISS %: 88.6668  AVERAGE MISS PENALTY: 387.999
LLC1 RFO       ACCESS:  2486  HIT:     0  MISS:  2486  HIT %:     0  MISS %:   100  AVERAGE MISS PENALTY: 263.471
LLC1 PREFETCH  ACCESS: 331002  HIT: 31330  MISS: 299672  HIT %: 9.4652  MISS %: 90.5348  AVERAGE MISS PENALTY: 349.175
LLC1 WRITEBACK ACCESS:  3105  HIT:  1671  MISS:  1434  HIT %: 53.8164  MISS %: 46.1836  AVERAGE MISS PENALTY: 0

LLC2 TOTAL     ACCESS: 343552  HIT: 35226  MISS: 308326  HIT %: 10.2535  MISS %: 89.7465  AVERAGE MISS PENALTY: 386.299
LLC2 LOAD      ACCESS:  5987  HIT:   701  MISS:  5286  HIT %: 11.7087  MISS %: 88.2913  AVERAGE MISS PENALTY: 350.785
LLC2 RFO       ACCESS:  2645  HIT:   131  MISS:  2514  HIT %: 4.95274  MISS %: 95.0473  AVERAGE MISS PENALTY: 285.234
LLC2 PREFETCH  ACCESS: 331886  HIT: 32700  MISS: 299186  HIT %: 9.85278  MISS %: 90.1472  AVERAGE MISS PENALTY: 389.506
LLC2 WRITEBACK ACCESS:  3034  HIT:  1694  MISS:  1340  HIT %: 55.8339  MISS %: 44.1661  AVERAGE MISS PENALTY: 0

LLC3 TOTAL     ACCESS: 344108  HIT: 35654  MISS: 308454  HIT %: 10.3613  MISS %: 89.6387  AVERAGE MISS PENALTY: 383.04
LLC3 LOAD      ACCESS:  6019  HIT:   718  MISS:  5301  HIT %: 11.9289  MISS %: 88.0711  AVERAGE MISS PENALTY: 350.67
LLC3 RFO       ACCESS:  2479  HIT:     0  MISS:  2479  HIT %:     0  MISS %:   100  AVERAGE MISS PENALTY: 272.418
LLC3 PREFETCH  ACCESS: 332405  HIT: 33140  MISS: 299265  HIT %: 9.96977  MISS %: 90.0302  AVERAGE MISS PENALTY: 386.333
LLC3 WRITEBACK ACCESS:  3205  HIT:  1796  MISS:  1409  HIT %: 56.0374  MISS %: 43.9626  AVERAGE MISS PENALTY: 0

LLC4 TOTAL     ACCESS: 344749  HIT: 35897  MISS: 308852  HIT %: 10.4125  MISS %: 89.5875  AVERAGE MISS PENALTY: 348.138
[...]
 TIMELY PREFETCHES:        423 LATE PREFETCHES: 0 DROPPED PREFETCHES: 0
LLC1 AVERAGE MISS LATENCY: 352.337 cycles
LLC2 TOTAL     ACCESS: 342027  HIT: 35193  MISS: 306834  HIT %: 10.2895  MISS %: 89.7105  AVERAGE MISS PENALTY: 396.353
LLC2 LOAD      ACCESS:  5982  HIT:   726  MISS:  5256  HIT %: 12.1364  MISS %: 87.8636  AVERAGE MISS PENALTY: 394.623
LLC2 RFO       ACCESS:  2627  HIT:   125  MISS:  2502  HIT %: 4.75828  MISS %: 95.2417  AVERAGE MISS PENALTY: 277.948
LLC2 PREFETCH  ACCESS: 330385  HIT: 32592  MISS: 297793  HIT %: 9.86485  MISS %: 90.1351  AVERAGE MISS PENALTY: 399.086
LLC2 WRITEBACK ACCESS:  3033  HIT:  1750  MISS:  1283  HIT %: 57.6986  MISS %: 42.3014  AVERAGE MISS PENALTY: 0
LLC2 PREFETCH  REQUESTED:     0  ISSUED:     0  USEFUL:   506  USELESS: 2385424
 USEFUL LOAD PREFETCHES:        506 PREFETCH ISSUED TO LOWER LEVEL:    2588492  ACCURACY: 0.0195481
 TIMELY PREFETCHES:        506 LATE PREFETCHES: 0 DROPPED PREFETCHES: 0
LLC2 AVERAGE MISS LATENCY: 396.353 cycles
LLC3 TOTAL     ACCESS: 342434  HIT: 35606  MISS: 306828  HIT %: 10.3979  MISS %: 89.6021  AVERAGE MISS PENALTY: 392.45
LLC3 LOAD      ACCESS:  5984  HIT:   714  MISS:  5270  HIT %: 11.9318  MISS %: 88.0682  AVERAGE MISS PENALTY: 394.233
LLC3 RFO       ACCESS:  2462  HIT:     0  MISS:  2462  HIT %:     0  MISS %:   100  AVERAGE MISS PENALTY: 268.574
LLC3 PREFETCH  ACCESS: 330799  HIT: 33034  MISS: 297765  HIT %: 9.98612  MISS %: 90.0139  AVERAGE MISS PENALTY: 395.197
LLC3 WRITEBACK ACCESS:  3189  HIT:  1858  MISS:  1331  HIT %: 58.2628  MISS %: 41.7372  AVERAGE MISS PENALTY: 0
LLC3 PREFETCH  REQUESTED:     0  ISSUED:     0  USEFUL:   492  USELESS: 2385477
 USEFUL LOAD PREFETCHES:        492 PREFETCH ISSUED TO LOWER LEVEL:    2574872  ACCURACY: 0.0191077
 TIMELY PREFETCHES:        492 LATE PREFETCHES: 0 DROPPED PREFETCHES: 0
LLC3 AVERAGE MISS LATENCY: 392.45 cycles
LLC4 TOTAL     ACCESS: 342942  HIT: 35753  MISS: 307189  HIT %: 10.4254  MISS %: 89.5746  AVERAGE MISS PENALTY: 350.583
LLC4 LOAD      ACCESS:  6029  HIT:   772  MISS:  5257  HIT %: 12.8048  MISS %: 87.1952  AVERAGE MISS PENALTY: 428.17
LLC4 RFO       ACCESS:  2457  HIT:     1  MISS:  2456  HIT %: 0.0407  MISS %: 99.9593  AVERAGE MISS PENALTY: 259.413
LLC4 PREFETCH  ACCESS: 331601  HIT: 33392  MISS: 298209  HIT %: 10.0699  MISS %: 89.9301  AVERAGE MISS PENALTY: 351.456
LLC4 WRITEBACK ACCESS:  2855  HIT:  1588  MISS:  1267  HIT %: 55.6217  MISS %: 44.3783  AVERAGE MISS PENALTY: 0
LLC4 PREFETCH  REQUESTED:     0  ISSUED:     0  USEFUL:   545  USELESS: 2389138
 USEFUL LOAD PREFETCHES:        545 PREFETCH ISSUED TO LOWER LEVEL:    2662549  ACCURACY: 0.0204691
 TIMELY PREFETCHES:        545 LATE PREFETCHES: 0 DROPPED PREFETCHES: 0
LLC4 AVERAGE MISS LATENCY: 350.583 cycles
LLC5 TOTAL     ACCESS: 343094  HIT: 35994  MISS: 307100  HIT %: 10.491  MISS %: 89.509  AVERAGE MISS PENALTY: 345.684
LLC5 LOAD      ACCESS:  6073  HIT:   792  MISS:  5281  HIT %: 13.0413  MISS %: 86.9587  AVERAGE MISS PENALTY: 438.281
LLC5 RFO       ACCESS:  2457  HIT:     1  MISS:  2456  HIT %: 0.0407  MISS %: 99.9593  AVERAGE MISS PENALTY: 260.277
LLC5 PREFETCH  ACCESS: 331586  HIT: 33426  MISS: 298160  HIT %: 10.0806  MISS %: 89.9194  AVERAGE MISS PENALTY: 346.142
LLC5 WRITEBACK ACCESS:  2978  HIT:  1775  MISS:  1203  HIT %: 59.6038  MISS %: 40.3962  AVERAGE MISS PENALTY: 0
LLC5 PREFETCH  REQUESTED:     0  ISSUED:     0  USEFUL:   636  USELESS: 2389715
 USEFUL LOAD PREFETCHES:        636 PREFETCH ISSUED TO LOWER LEVEL:    2656021  ACCURACY: 0.0239456
 TIMELY PREFETCHES:        636 LATE PREFETCHES: 0 DROPPED PREFETCHES: 0
LLC5 AVERAGE MISS LATENCY: 345.684 cycles
LLC6 TOTAL     ACCESS: 342927  HIT: 35203  MISS: 307724  HIT %: 10.2655  MISS %: 89.7345  AVERAGE MISS PENALTY: 380.024
LLC6 LOAD      ACCESS:  5961  HIT:   705  MISS:  5256  HIT %: 11.8269  MISS %: 88.1731  AVERAGE MISS PENALTY: 391.733
LLC6 RFO       ACCESS:  2459  HIT:     2  MISS:  2457  HIT %: 0.0813339  MISS %: 99.9187  AVERAGE MISS PENALTY: 277.13
LLC6 PREFETCH  ACCESS: 331714  HIT: 32975  MISS: 298739  HIT %: 9.94079  MISS %: 90.0592  AVERAGE MISS PENALTY: 382.283
LLC6 WRITEBACK ACCESS:  2793  HIT:  1521  MISS:  1272  HIT %: 54.4576  MISS %: 45.5424  AVERAGE MISS PENALTY: 0
LLC6 PREFETCH  REQUESTED:     0  ISSUED:     0  USEFUL:   547  USELESS: 2393142
 USEFUL LOAD PREFETCHES:        547 PREFETCH ISSUED TO LOWER LEVEL:    2744527  ACCURACY: 0.0199306
 TIMELY PREFETCHES:        547 LATE PREFETCHES: 0 DROPPED PREFETCHES: 0
LLC6 AVERAGE MISS LATENCY: 380.024 cycles
LLC7 TOTAL     ACCESS: 342857  HIT: 34289  MISS: 308568  HIT %: 10.001  MISS %: 89.999  AVERAGE MISS PENALTY: 379.801
LLC7 LOAD      ACCESS:  5842  HIT:   557  MISS:  5285  HIT %: 9.53441  MISS %: 90.4656  AVERAGE MISS PENALTY: 395.118
LLC7 RFO       ACCESS:  2456  HIT:     0  MISS:  2456  HIT %:     0  MISS %:   100  AVERAGE MISS PENALTY: 278.686
LLC7 PREFETCH  ACCESS: 331784  HIT: 32208  MISS: 299576  HIT %: 9.70752  MISS %: 90.2925  AVERAGE MISS PENALTY: 381.946
LLC7 WRITEBACK ACCESS:  2775  HIT:  1524  MISS:  1251  HIT %: 54.9189  MISS %: 45.0811  AVERAGE MISS PENALTY: 0
LLC7 PREFETCH  REQUESTED:     0  ISSUED:     0  USEFUL:   489  USELESS: 2398878
 USEFUL LOAD PREFETCHES:        489 PREFETCH ISSUED TO LOWER LEVEL:    2806333  ACCURACY: 0.0174249
 TIMELY PREFETCHES:        489 LATE PREFETCHES: 0 DROPPED PREFETCHES: 0
LLC7 AVERAGE MISS LATENCY: 379.801 cycles
ROI Average ROB Stall Cycles:	8.45498
ROI Total ROB Stalls Cycles:	139777169
ROI TOTAL ROB counter      :	16531934
ROI Average Load ROB Stall Cycles:	14.9495
ROI Total Load ROB Stalls Cycle  :	44477933
ROI Total Load ROB stalls Counter:	2975208
Major fault: 0 Minor fault: 131539

CPU 7 cumulative IPC: 1.07794 instructions: 200000003 cycles: 185538637
ITLB TOTAL     ACCESS: 37189269  HIT: 37189269  MISS:     0  HIT %:   100  MISS %:     0  AVERAGE MISS PENALTY: 0
ITLB LOAD      ACCESS: 37189269  HIT: 37189269  MISS:     0  HIT %:   100  MISS %:     0  AVERAGE MISS PENALTY: 0
ITLB RFO       ACCESS:     0  HIT:     0  MISS:     0  HIT %:     0  MISS %:     0  AVERAGE MISS PENALTY: 0
ITLB PREFETCH  ACCESS:     0  HIT:     0  MISS:     0  HIT %:     0  MISS %:     0  AVERAGE MISS PENALTY: 0
ITLB WRITEBACK ACCESS:     0  HIT:     0  MISS:     0  HIT %:     0  MISS %:     0  AVERAGE MISS PENALTY: 0
ITLB PREFETCH  REQUESTED:     0  ISSUED:     0  USEFUL:     0  USELESS:     0
 USEFUL LOAD PREFETCHES:          0 PREFETCH ISSUED TO LOWER LEVEL:          0  ACCURACY: -nan
 TIMELY PREFETCHES:          0 LATE PREFETCHES: 0 DROPPED PREFETCHES: 0
ITLB AVERAGE MISS LATENCY: -nan cycles
DTLB TOTAL     ACCESS: 58086094  HIT: 58003473  MISS: 82621  HIT %: 99.8578  MISS %: 0.142239  AVERAGE MISS PENALTY: 187.914
DTLB LOAD      ACCESS: 51413811  HIT: 51331566  MISS: 82245  HIT %: 99.84  MISS %: 0.159967  AVERAGE MISS PENALTY: 188.332
DTLB RFO       ACCESS: 6672283  HIT: 6671907  MISS:   376  HIT %: 99.9944  MISS %: 0.00563525  AVERAGE MISS PENALTY: 96.4973
DTLB PREFETCH  ACCESS:     0  HIT:     0  MISS:     0  HIT %:     0  MISS %:     0  AVERAGE MISS PENALTY: 0
DTLB WRITEBACK ACCESS:     0  HIT:     0  MISS:     0  HIT %:     0  MISS %:     0  AVERAGE MISS PENALTY: 0
DTLB PREFETCH  REQUESTED:     0  ISSUED:     0  USEFUL:     0  USELESS:     0
 USEFUL LOAD PREFETCHES:          0 PREFETCH ISSUED TO LOWER LEVEL:          0  ACCURACY: -nan
 TIMELY PREFETCHES:          0 LATE PREFETCHES: 0 DROPPED PREFETCHES: 0
DTLB AVERAGE MISS LATENCY: 187.914 cycles
STLB TOTAL     ACCESS: 82621  HIT: 16860  MISS: 65761  HIT %: 20.4064  MISS %: 79.5936  AVERAGE MISS PENALTY: 100
STLB LOAD      ACCESS: 82245  HIT: 16811  MISS: 65434  HIT %: 20.4401  MISS %: 79.5599  AVERAGE MISS PENALTY: 100
STLB RFO       ACCESS:   376  HIT:    49  MISS:   327  HIT %: 13.0319  MISS %: 86.9681  AVERAGE MISS PENALTY: 100
STLB PREFETCH  ACCESS:     0  HIT:     0  MISS:     0  HIT %:     0  MISS %:     0  AVERAGE MISS PENALTY: 0
STLB WRITEBACK ACCESS:     0  HIT:     0  MISS:     0  HIT %:     0  MISS %:     0  AVERAGE MISS PENALTY: 0
STLB PREFETCH  REQUESTED:     0  ISSUED:     0  USEFUL:     0  USELESS:     0
 USEFUL LOAD PREFETCHES:          0 PREFETCH ISSUED TO LOWER LEVEL:          0  ACCURACY: -nan
 TIMELY PREFETCHES:          0 LATE PREFETCHES: 0 DROPPED PREFETCHES: 0
STLB AVERAGE MISS LATENCY: 100 cycles
L1D TOTAL     ACCESS: 64714737  HIT: 62019276  MISS: 2695461  HIT %: 95.8349  MISS %: 4.16514  AVERAGE MISS PENALTY: 2.60115e+06
L1D LOAD      ACCESS: 50349013  HIT: 50212390  MISS: 136623  HIT %: 99.7286  MISS %: 0.271352  AVERAGE MISS PENALTY: 5.13173e+07
L1D RFO       ACCESS: 6702711  HIT: 6682243  MISS: 20468  HIT %: 99.6946  MISS %: 0.305369  AVERAGE MISS PENALTY: 324.479
L1D PREFETCH  ACCESS: 7663013  HIT: 5124643  MISS: 2538370  HIT %: 66.875  MISS %: 33.125  AVERAGE MISS PENALTY: 70.4832
L1D WRITEBACK ACCESS:     0  HIT:     0  MISS:     0  HIT %:     0  MISS %:     0  AVERAGE MISS PENALTY: 0
L1D PREFETCH  REQUESTED: 8281614  ISSUED: 7940002  USEFUL: 2457818  USELESS: 80560
 USEFUL LOAD PREFETCHES:    2457818 PREFETCH ISSUED TO LOWER LEVEL:    4271720  ACCURACY: 57.537
 TIMELY PREFETCHES:    2457818 LATE PREFETCHES: 46675 DROPPED PREFETCHES: 341612
L1D AVERAGE MISS LATENCY: 85.9562 cycles
L1I TOTAL     ACCESS: 47830318  HIT: 47830318  MISS:     0  HIT %:   100  MISS %:     0  AVERAGE MISS PENALTY: 0
L1I LOAD      ACCESS: 47830318  HIT: 47830318  MISS:     0  HIT %:   100  MISS %:     0  AVERAGE MISS PENALTY: 0
L1I RFO       ACCESS:     0  HIT:     0  MISS:     0  HIT %:     0  MISS %:     0  AVERAGE MISS PENALTY: 0
L1I PREFETCH  ACCESS:     0  HIT:     0  MISS:     0  HIT %:     0  MISS %:     0  AVERAGE MISS PENALTY: 0
L1I WRITEBACK ACCESS:     0  HIT:     0  MISS:     0  HIT %:     0  MISS %:     0  AVERAGE MISS PENALTY: 0
L1I PREFETCH  REQUESTED:     0  ISSUED:     0  USEFUL:     0  USELESS:     0
 USEFUL LOAD PREFETCHES:          0 PREFETCH ISSUED TO LOWER LEVEL:          0  ACCURACY: -nan
 TIMELY PREFETCHES:          0 LATE PREFETCHES: 0 DROPPED PREFETCHES: 0
L1I AVERAGE MISS LATENCY: -nan cycles
L2C TOTAL     ACCESS: 6341690  HIT: 3614232  MISS: 2727458  HIT %: 56.9916  MISS %: 43.0084  AVERAGE MISS PENALTY: 2.41379e+06
L2C LOAD      ACCESS: 133604  HIT: 10130  MISS: 123474  HIT %: 7.58211  MISS %: 92.4179  AVERAGE MISS PENALTY: 5.33116e+07
L2C RFO       ACCESS: 20468  HIT:   604  MISS: 19864  HIT %: 2.95095  MISS %: 97.0491  AVERAGE MISS PENALTY: 316.634
L2C PREFETCH  ACCESS: 6136578  HIT: 3566512  MISS: 2570066  HIT %: 58.1189  MISS %: 41.8811  AVERAGE MISS PENALTY: 353.14
L2C WRITEBACK ACCESS: 51040  HIT: 36986  MISS: 14054  HIT %: 72.4647  MISS %: 27.5353  AVERAGE MISS PENALTY: 0
L2C PREFETCH  REQUESTED: 4762611  ISSUED: 4762325  USEFUL:  4091  USELESS: 2565275
 USEFUL LOAD PREFETCHES:       4091 PREFETCH ISSUED TO LOWER LEVEL:    3399826  ACCURACY: 0.12033
 TIMELY PREFETCHES:       4091 LATE PREFETCHES: 44185 DROPPED PREFETCHES: 286
L2C AVERAGE MISS LATENCY: 350.647 cycles
LLC0 TOTAL     ACCESS: 339978  HIT: 30220  MISS: 309758  HIT %: 8.88881  MISS %: 91.1112  AVERAGE MISS PENALTY: 356.388
LLC0 LOAD      ACCESS: 44911  HIT:  4931  MISS: 39980  HIT %: 10.9795  MISS %: 89.0205  AVERAGE MISS PENALTY: 356.137
LLC0 RFO       ACCESS:  2476  HIT:     1  MISS:  2475  HIT %: 0.0403877  MISS %: 99.9596  AVERAGE MISS PENALTY: 275.567
LLC0 PREFETCH  ACCESS: 289757  HIT: 23924  MISS: 265833  HIT %: 8.25657  MISS %: 91.7434  AVERAGE MISS PENALTY: 359.149
LLC0 WRITEBACK ACCESS:  2834  HIT:  1364  MISS:  1470  HIT %: 48.1299  MISS %: 51.8701  AVERAGE MISS PENALTY: 0
LLC0 PREFETCH  REQUESTED:     0  ISSUED:     0  USEFUL:   396  USELESS: 2129719
 USEFUL LOAD PREFETCHES:        396 PREFETCH ISSUED TO LOWER LEVEL:    2238648  ACCURACY: 0.0176892
 TIMELY PREFETCHES:        396 LATE PREFETCHES: 0 DROPPED PREFETCHES: 0
LLC0 AVERAGE MISS LATENCY: 356.388 cycles
Deadblocks : 286823 Deadblock percentage : 717.416

LLC1 TOTAL     ACCESS: 340944  HIT: 33771  MISS: 307173  HIT %: 9.90515  MISS %: 90.0949  AVERAGE MISS PENALTY: 347.828
LLC1 LOAD      ACCESS:  6046  HIT:   679  MISS:  5367  HIT %: 11.2306  MISS %: 88.7694  AVERAGE MISS PENALTY: 410.445
LLC1 RFO       ACCESS:  2470  HIT:     0  MISS:  2470  HIT %:     0  MISS %:   100  AVERAGE MISS PENALTY: 267.901
LLC1 PREFETCH  ACCESS: 329282  HIT: 31400  MISS: 297882  HIT %: 9.5359  MISS %: 90.4641  AVERAGE MISS PENALTY: 349.06
LLC1 WRITEBACK ACCESS:  3146  HIT:  1692  MISS:  1454  HIT %: 53.7826  MISS %: 46.2174  AVERAGE MISS PENALTY: 0
LLC1 PREFETCH  REQUESTED:     0  ISSUED:     0  USEFUL:   423  USELESS: 2387723
 USEFUL LOAD PREFETCHES:        423 PREFETCH ISSUED TO LOWER LEVEL:    2504813  ACCURACY: 0.0168875
 TIMELY PREFETCHES:        423 LATE PREFETCHES: 0 DROPPED PREFETCHES: 0
LLC1 AVERAGE MISS LATENCY: 347.828 cycles
LLC2 TOTAL     ACCESS: 341920  HIT: 35103  MISS: 306817  HIT %: 10.2664  MISS %: 89.7336  AVERAGE MISS PENALTY: 389.431
LLC2 LOAD      ACCESS:  5982  HIT:   721  MISS:  5261  HIT %: 12.0528  MISS %: 87.9472  AVERAGE MISS PENALTY: 377.478
LLC2 RFO       ACCESS:  2628  HIT:   124  MISS:  2504  HIT %: 4.71842  MISS %: 95.2816  AVERAGE MISS PENALTY: 289.429
LLC2 PREFETCH  ACCESS: 330237  HIT: 32510  MISS: 297727  HIT %: 9.84445  MISS %: 90.1556  AVERAGE MISS PENALTY: 392.216
LLC2 WRITEBACK ACCESS:  3073  HIT:  1748  MISS:  1325  HIT %: 56.8825  MISS %: 43.1175  AVERAGE MISS PENALTY: 0
LLC2 PREFETCH  REQUESTED:     0  ISSUED:     0  USEFUL:   506  USELESS: 2385424
 USEFUL LOAD PREFETCHES:        506 PREFETCH ISSUED TO LOWER LEVEL:    2588492  ACCURACY: 0.0195481
 TIMELY PREFETCHES:        506 LATE PREFETCHES: 0 DROPPED PREFETCHES: 0
LLC2 AVERAGE MISS LATENCY: 389.431 cycles
LLC3 TOTAL     ACCESS: 342346  HIT: 35502  MISS: 306844  HIT %: 10.3702  MISS %: 89.6298  AVERAGE MISS PENALTY: 385.412
LLC3 LOAD      ACCESS:  5967  HIT:   690  MISS:  5277  HIT %: 11.5636  MISS %: 88.4364  AVERAGE MISS PENALTY: 361.276
LLC3 RFO       ACCESS:  2464  HIT:     3  MISS:  2461  HIT %: 0.121753  MISS %: 99.8782  AVERAGE MISS PENALTY: 281.282
LLC3 PREFETCH  ACCESS: 330696  HIT: 33025  MISS: 297671  HIT %: 9.98651  MISS %: 90.0135  AVERAGE MISS PENALTY: 388.559
LLC3 WRITEBACK ACCESS:  3219  HIT:  1784  MISS:  1435  HIT %: 55.4209  MISS %: 44.5791  AVERAGE MISS PENALTY: 0
LLC3 PREFETCH  REQUESTED:     0  ISSUED:     0  USEFUL:   492  USELESS: 2385477
 USEFUL LOAD PREFETCHES:        492 PREFETCH ISSUED TO LOWER LEVEL:    2574872  ACCURACY: 0.0191077
 TIMELY PREFETCHES:        492 LATE PREFETCHES: 0 DROPPED PREFETCHES: 0
LLC3 AVERAGE MISS LATENCY: 385.412 cycles
LLC4 TOTAL     ACCESS: 343040  HIT: 35614  MISS: 307426  HIT %: 10.3819  MISS %: 89.6181  AVERAGE MISS PENALTY: 345.978
LLC4 LOAD      ACCESS:  6014  HIT:   748  MISS:  5266  HIT %: 12.4376  MISS %: 87.5624  AVERAGE MISS PENALTY: 396.89
LLC4 RFO       ACCESS:  2457  HIT:     0  MISS:  2457  HIT %:     0  MISS %:   100  AVERAGE MISS PENALTY: 269.508
LLC4 PREFETCH  ACCESS: 331643  HIT: 33236  MISS: 298407  HIT %: 10.0216  MISS %: 89.9784  AVERAGE MISS PENALTY: 347.212
LLC4 WRITEBACK ACCESS:  2926  HIT:  1630  MISS:  1296  HIT %: 55.7075  MISS %: 44.2925  AVERAGE MISS PENALTY: 0
LLC4 PREFETCH  REQUESTED:     0  ISSUED:     0  USEFUL:   545  USELESS: 2389138
 USEFUL LOAD PREFETCHES:        545 PREFETCH ISSUED TO LOWER LEVEL:    2662549  ACCURACY: 0.0204691
 TIMELY PREFETCHES:        545 LATE PREFETCHES: 0 DROPPED PREFETCHES: 0
LLC4 AVERAGE MISS LATENCY: 345.978 cycles
LLC5 TOTAL     ACCESS: 343239  HIT: 35867  MISS: 307372  HIT %: 10.4496  MISS %: 89.5504  AVERAGE MISS PENALTY: 341.319
LLC5 LOAD      ACCESS:  6092  HIT:   785  MISS:  5307  HIT %: 12.8858  MISS %: 87.1142  AVERAGE MISS PENALTY: 416.932
LLC5 RFO       ACCESS:  2457  HIT:     2  MISS:  2455  HIT %: 0.0814001  MISS %: 99.9186  AVERAGE MISS PENALTY: 278.537
LLC5 PREFETCH  ACCESS: 331669  HIT: 33354  MISS: 298315  HIT %: 10.0564  MISS %: 89.9436  AVERAGE MISS PENALTY: 341.972
LLC5 WRITEBACK ACCESS:  3021  HIT:  1726  MISS:  1295  HIT %: 57.1334  MISS %: 42.8666  AVERAGE MISS PENALTY: 0
LLC5 PREFETCH  REQUESTED:     0  ISSUED:     0  USEFUL:   636  USELESS: 2389715
 USEFUL LOAD PREFETCHES:        636 PREFETCH ISSUED TO LOWER LEVEL:    2656021  ACCURACY: 0.0239456
 TIMELY PREFETCHES:        636 LATE PREFETCHES: 0 DROPPED PREFETCHES: 0
LLC5 AVERAGE MISS LATENCY: 341.319 cycles
LLC6 TOTAL     ACCESS: 343028  HIT: 35216  MISS: 307812  HIT %: 10.2662  MISS %: 89.7338  AVERAGE MISS PENALTY: 373.919
LLC6 LOAD      ACCESS:  5964  HIT:   712  MISS:  5252  HIT %: 11.9383  MISS %: 88.0617  AVERAGE MISS PENALTY: 355.298
LLC6 RFO       ACCESS:  2456  HIT:     0  MISS:  2456  HIT %:     0  MISS %:   100  AVERAGE MISS PENALTY: 280.649
LLC6 PREFETCH  ACCESS: 331768  HIT: 32994  MISS: 298774  HIT %: 9.9449  MISS %: 90.0551  AVERAGE MISS PENALTY: 376.678
LLC6 WRITEBACK ACCESS:  2840  HIT:  1510  MISS:  1330  HIT %: 53.169  MISS %: 46.831  AVERAGE MISS PENALTY: 0
LLC6 PREFETCH  REQUESTED:     0  ISSUED:     0  USEFUL:   547  USELESS: 2393142
 USEFUL LOAD PREFETCHES:        547 PREFETCH ISSUED TO LOWER LEVEL:    2744527  ACCURACY: 0.0199306
 TIMELY PREFETCHES:        547 LATE PREFETCHES: 0 DROPPED PREFETCHES: 0
LLC6 AVERAGE MISS LATENCY: 373.919 cycles
LLC7 TOTAL     ACCESS: 342816  HIT: 34473  MISS: 308343  HIT %: 10.0558  MISS %: 89.9442  AVERAGE MISS PENALTY: 372.937
LLC7 LOAD      ACCESS:  5838  HIT:   586  MISS:  5252  HIT %: 10.0377  MISS %: 89.9623  AVERAGE MISS PENALTY: 369.776
LLC7 RFO       ACCESS:  2456  HIT:     1  MISS:  2455  HIT %: 0.0407166  MISS %: 99.9593  AVERAGE MISS PENALTY: 289.949
LLC7 PREFETCH  ACCESS: 331674  HIT: 32342  MISS: 299332  HIT %: 9.75114  MISS %: 90.2489  AVERAGE MISS PENALTY: 375.298
LLC7 WRITEBACK ACCESS:  2848  HIT:  1544  MISS:  1304  HIT %: 54.2135  MISS %: 45.7865  AVERAGE MISS PENALTY: 0
LLC7 PREFETCH  REQUESTED:     0  ISSUED:     0  USEFUL:   489  USELESS: 2398878
 USEFUL LOAD PREFETCHES:        489 PREFETCH ISSUED TO LOWER LEVEL:    2806333  ACCURACY: 0.0174249
 TIMELY PREFETCHES:        489 LATE PREFETCHES: 0 DROPPED PREFETCHES: 0
LLC7 AVERAGE MISS LATENCY: 372.937 cycles
ROI Average ROB Stall Cycles:	8.44088
ROI Total ROB Stalls Cycles:	139539754
ROI TOTAL ROB counter      :	16531422
ROI Average Load ROB Stall Cycles:	14.8808
ROI Total Load ROB Stalls Cycle  :	44266837
ROI Total Load ROB stalls Counter:	2974757
Major fault: 0 Minor fault: 131622








Interconnect Stats 
LINK 0 BW : 0LINK 1 BW : 0LINK 2 BW : 0LINK 3 BW : 0LINK 4 BW : 0LINK 5 BW : 0LINK 6 BW : 0LINK 7 BW : 0
DRAM Statistics
 CHANNEL 0
 RQ ROW_BUFFER_HIT: 8247727  ROW_BUFFER_MISS: 1577704
 DBUS_CONGESTED: 2962189
 WQ ROW_BUFFER_HIT:  8602  ROW_BUFFER_MISS: 77845  FULL:     0

 CHANNEL 1
 RQ ROW_BUFFER_HIT: 8234537  ROW_BUFFER_MISS: 1577484
 DBUS_CONGESTED: 2962189
 WQ ROW_BUFFER_HIT:  8818  ROW_BUFFER_MISS: 79133  FULL:     0

 AVG_CONGESTED_CYCLE: 4
DRAM PAGES: 2097152
Allocated PAGES: 1052946
L2C destructor called
L1D destructor called
L1I destructor called
STLB destructor called
DTLB destructor called
ITLB destructor called
L2C destructor called
L1D destructor called
L1I destructor called
STLB destructor called
DTLB destructor called
ITLB destructor called
L2C destructor called
L1D destructor called
L1I destructor called
STLB destructor called
DTLB destructor called
ITLB destructor called
L2C destructor called
L1D destructor called
L1I destructor called
STLB destructor called
DTLB destructor called
ITLB destructor called
L2C destructor called
L1D destructor called
L1I destructor called
STLB destructor called
DTLB destructor called
ITLB destructor called
L2C destructor called
L1D destructor called
L1I destructor called
STLB destructor called
DTLB destructor called
ITLB destructor called
L2C destructor called
L1D destructor called
L1I destructor called
STLB destructor called
DTLB destructor called
ITLB destructor called
L2C destructor called
L1D destructor called
L1I destructor called
STLB destructor called
DTLB destructor called
ITLB destructor called
