
*** ChampSim Multicore Out-of-Order Simulator ***

Warmup Instructions: 200000000
Simulation Instructions: 200000000
Number of CPUs: 8
threads:1

L1I Configuration:
L1I_SET:64
L1I_WAY:8
L1I_RQ_SIZE:64
L1I_WQ_SIZE:64
L1I_PQ_SIZE:8
L1I_MSHR_SIZE:8

L1D Configuration:
L1D_SET:64
L1D_WAY:12
L1D_RQ_SIZE:64
L1D_WQ_SIZE:64
L1D_PQ_SIZE:8
L1D_MSHR_SIZE:16

L2C Configuration:
L2C_SET:1024
L2C_WAY:8
L2C_RQ_SIZE:32
L2C_WQ_SIZE:32
L2C_PQ_SIZE:16
L2C_MSHR_SIZE:32

LLC Configuration:
LLC_SET:2048
LLC_WAY:16
LLC SLICES:8
LLC_RQ_SIZE:64
LLC_WQ_SIZE:64
LLC_PQ_SIZE:32
LLC_MSHR_SIZE:64

Interconnect OFF
Attacker deprioritize is: OFF
Off-chip DRAM Size: 8192 MB Channels: 2 Width: 64-bit Data Rate: 3200 MT/s
PAGE SIZE in KB: 4.000000 
PAGE SIZE in MB: 0.003906 
PAGE offset in bits: 12 
CEASER-S_LLC:0
MIRAGE : 0
CEASER_LATENCY:3
REMAP : OFF
Partitions : 1
Multi-Step : OFF
BFS : OFF

CPU 0 runs /home/anubhav/spec_2017/657.xz_s-2302B.champsimtrace.xz
CPU 1 runs /home/anubhav/spec_2017/657.xz_s-2302B.champsimtrace.xz
CPU 2 runs /home/anubhav/spec_2017/657.xz_s-2302B.champsimtrace.xz
CPU 3 runs /home/anubhav/spec_2017/657.xz_s-2302B.champsimtrace.xz
CPU 4 runs /home/anubhav/spec_2017/657.xz_s-2302B.champsimtrace.xz
CPU 5 runs /home/anubhav/spec_2017/657.xz_s-2302B.champsimtrace.xz
CPU 6 runs /home/anubhav/spec_2017/657.xz_s-2302B.champsimtrace.xz
CPU 7 runs /home/anubhav/spec_2017/657.xz_s-2302B.champsimtrace.xz
CPU 0 Bimodal branch predictor
Initialize Hawkeye state
Initialize Hawkeye state
Initialize Hawkeye state
Initialize Hawkeye state
Initialize Hawkeye state
Initialize Hawkeye state
Initialize Hawkeye state
Initialize Hawkeye state
CPU 1 Bimodal branch predictor
Initialize Hawkeye state
Initialize Hawkeye state
Initialize Hawkeye state
Initialize Hawkeye state
Initialize Hawkeye state
Initialize Hawkeye state
Initialize Hawkeye state
Initialize Hawkeye state
CPU 2 Bimodal branch predictor
Initialize Hawkeye state
Initialize Hawkeye state
Initialize Hawkeye state
Initialize Hawkeye state
Initialize Hawkeye state
Initialize Hawkeye state
Initialize Hawkeye state
Initialize Hawkeye state
CPU 3 Bimodal branch predictor
Initialize Hawkeye state
Initialize Hawkeye state
Initialize Hawkeye state
Initialize Hawkeye state
Initialize Hawkeye state
Initialize Hawkeye state
Initialize Hawkeye state
Initialize Hawkeye state
CPU 4 Bimodal branch predictor
Initialize Hawkeye state
Initialize Hawkeye state
Initialize Hawkeye state
Initialize Hawkeye state
Initialize Hawkeye state
Initialize Hawkeye state
Initialize Hawkeye state
Initialize Hawkeye state
CPU 5 Bimodal branch predictor
Initialize Hawkeye state
Initialize Hawkeye state
Initialize Hawkeye state
Initialize Hawkeye state
Initialize Hawkeye state
Initialize Hawkeye state
Initialize Hawkeye state
Initialize Hawkeye state
CPU 6 Bimodal branch predictor
Initialize Hawkeye state
Initialize Hawkeye state
Initialize Hawkeye state
Initialize Hawkeye state
Initialize Hawkeye state
Initialize Hawkeye state
Initialize Hawkeye state
Initialize Hawkeye state
CPU 7 Bimodal branch predictor
Initialize Hawkeye state
Initialize Hawkeye state
Initialize Hawkeye state
Initialize Hawkeye state
Initialize Hawkeye state
Initialize Hawkeye state
Initialize Hawkeye state
Initialize Hawkeye state
Heartbeat CPU 3 instructions: 10000001 cycles: 7438503 heartbeat IPC: 1.34436 cumulative IPC: 1.34436 (Simulation time: 3 hr 7 min 36 sec) 
 Total Blocks : 262144 Invalid Blocks : 69138
Heartbeat CPU 4 instructions: 10000001 cycles: 7438522 heartbeat IPC: 1.34435 cumulative IPC: 1.34435 (Simulation time: 3 hr 7 min 40 sec) 
 Total Blocks : 262144 Invalid Blocks : 69138
Heartbeat CPU 2 instructions: 10000001 cycles: 7439151 heartbeat IPC: 1.34424 cumulative IPC: 1.34424 (Simulation time: 3 hr 7 min 40 sec) 
 Total Blocks : 262144 Invalid Blocks : 69128
Heartbeat CPU 1 instructions: 10000001 cycles: 7439422 heartbeat IPC: 1.34419 cumulative IPC: 1.34419 (Simulation time: 3 hr 7 min 41 sec) 
 Total Blocks : 262144 Invalid Blocks : 69124
Heartbeat CPU 5 instructions: 10000001 cycles: 7439606 heartbeat IPC: 1.34416 cumulative IPC: 1.34416 (Simulation time: 3 hr 7 min 41 sec) 
 Total Blocks : 262144 Invalid Blocks : 69123
Heartbeat CPU 0 instructions: 10000001 cycles: 7439658 heartbeat IPC: 1.34415 cumulative IPC: 1.34415 (Simulation time: 3 hr 7 min 41 sec) 
 Total Blocks : 262144 Invalid Blocks : 69122
Heartbeat CPU 6 instructions: 10000001 cycles: 7440333 heartbeat IPC: 1.34403 cumulative IPC: 1.34403 (Simulation time: 3 hr 7 min 41 sec) 
 Total Blocks : 262144 Invalid Blocks : 69112
Heartbeat CPU 7 instructions: 10000001 cycles: 7440589 heartbeat IPC: 1.34398 cumulative IPC: 1.34398 (Simulation time: 3 hr 7 min 42 sec) 
 Total Blocks : 262144 Invalid Blocks : 69107
Heartbeat CPU 3 instructions: 20000001 cycles: 14766266 heartbeat IPC: 1.36467 cumulative IPC: 1.35444 (Simulation time: 5 hr 54 min 2 sec) 
 Total Blocks : 262144 Invalid Blocks : 27761
Heartbeat CPU 4 instructions: 20000001 cycles: 14766381 heartbeat IPC: 1.36466 cumulative IPC: 1.35443 (Simulation time: 5 hr 54 min 8 sec) 
 Total Blocks : 262144 Invalid Blocks : 27760
Heartbeat CPU 2 instructions: 20000001 cycles: 14767123 heartbeat IPC: 1.36463 cumulative IPC: 1.35436 (Simulation time: 5 hr 54 min 11 sec) 
 Total Blocks : 262144 Invalid Blocks : 27758
Heartbeat CPU 1 instructions: 20000001 cycles: 14767607 heartbeat IPC: 1.36459 cumulative IPC: 1.35432 (Simulation time: 5 hr 54 min 11 sec) 
 Total Blocks : 262144 Invalid Blocks : 27756
Heartbeat CPU 5 instructions: 20000001 cycles: 14768449 heartbeat IPC: 1.36447 cumulative IPC: 1.35424 (Simulation time: 5 hr 54 min 12 sec) 
 Total Blocks : 262144 Invalid Blocks : 27755
Heartbeat CPU 0 instructions: 20000001 cycles: 14768843 heartbeat IPC: 1.36441 cumulative IPC: 1.3542 (Simulation time: 5 hr 54 min 12 sec) 
 Total Blocks : 262144 Invalid Blocks : 27755
Heartbeat CPU 7 instructions: 20000001 cycles: 14769478 heartbeat IPC: 1.36446 cumulative IPC: 1.35414 (Simulation time: 5 hr 54 min 13 sec) 
 Total Blocks : 262144 Invalid Blocks : 27754
Heartbeat CPU 6 instructions: 20000001 cycles: 14769665 heartbeat IPC: 1.36438 cumulative IPC: 1.35413 (Simulation time: 5 hr 54 min 13 sec) 
 Total Blocks : 262144 Invalid Blocks : 27754
Heartbeat CPU 3 instructions: 30000003 cycles: 22223344 heartbeat IPC: 1.34101 cumulative IPC: 1.34993 (Simulation time: 8 hr 32 min 2 sec) 
 Total Blocks : 262144 Invalid Blocks : 10799
Heartbeat CPU 4 instructions: 30000003 cycles: 22223873 heartbeat IPC: 1.34093 cumulative IPC: 1.3499 (Simulation time: 8 hr 32 min 10 sec) 
 Total Blocks : 262144 Invalid Blocks : 10798
Heartbeat CPU 2 instructions: 30000003 cycles: 22224586 heartbeat IPC: 1.34094 cumulative IPC: 1.34986 (Simulation time: 8 hr 32 min 11 sec) 
 Total Blocks : 262144 Invalid Blocks : 10798
Heartbeat CPU 1 instructions: 30000003 cycles: 22225351 heartbeat IPC: 1.34089 cumulative IPC: 1.34981 (Simulation time: 8 hr 32 min 12 sec) 
 Total Blocks : 262144 Invalid Blocks : 10798
Heartbeat CPU 5 instructions: 30000003 cycles: 22226730 heartbeat IPC: 1.34079 cumulative IPC: 1.34973 (Simulation time: 8 hr 32 min 14 sec) 
 Total Blocks : 262144 Invalid Blocks : 10798
Heartbeat CPU 0 instructions: 30000003 cycles: 22227296 heartbeat IPC: 1.34076 cumulative IPC: 1.34969 (Simulation time: 8 hr 32 min 14 sec) 
 Total Blocks : 262144 Invalid Blocks : 10798
Heartbeat CPU 7 instructions: 30000003 cycles: 22228160 heartbeat IPC: 1.34072 cumulative IPC: 1.34964 (Simulation time: 8 hr 32 min 15 sec) 
 Total Blocks : 262144 Invalid Blocks : 10798
Heartbeat CPU 6 instructions: 30000003 cycles: 22229128 heartbeat IPC: 1.34058 cumulative IPC: 1.34958 (Simulation time: 8 hr 32 min 15 sec) 
 Total Blocks : 262144 Invalid Blocks : 10798
Heartbeat CPU 3 instructions: 40000000 cycles: 29803480 heartbeat IPC: 1.31924 cumulative IPC: 1.34213 (Simulation time: 10 hr 54 min 30 sec) 
 Total Blocks : 262144 Invalid Blocks : 4772
Heartbeat CPU 4 instructions: 40000000 cycles: 29804173 heartbeat IPC: 1.31921 cumulative IPC: 1.34209 (Simulation time: 10 hr 54 min 38 sec) 
 Total Blocks : 262144 Invalid Blocks : 4772
Heartbeat CPU 2 instructions: 40000000 cycles: 29804786 heartbeat IPC: 1.31923 cumulative IPC: 1.34207 (Simulation time: 10 hr 54 min 39 sec) 
 Total Blocks : 262144 Invalid Blocks : 4771
Heartbeat CPU 1 instructions: 40000000 cycles: 29806142 heartbeat IPC: 1.31912 cumulative IPC: 1.34201 (Simulation time: 10 hr 54 min 40 sec) 
 Total Blocks : 262144 Invalid Blocks : 4769
Heartbeat CPU 5 instructions: 40000000 cycles: 29807903 heartbeat IPC: 1.31906 cumulative IPC: 1.34193 (Simulation time: 10 hr 54 min 42 sec) 
 Total Blocks : 262144 Invalid Blocks : 4768
Heartbeat CPU 0 instructions: 40000000 cycles: 29808373 heartbeat IPC: 1.31907 cumulative IPC: 1.3419 (Simulation time: 10 hr 54 min 42 sec) 
 Total Blocks : 262144 Invalid Blocks : 4767
Heartbeat CPU 7 instructions: 40000000 cycles: 29809858 heartbeat IPC: 1.31897 cumulative IPC: 1.34184 (Simulation time: 10 hr 54 min 43 sec) 
 Total Blocks : 262144 Invalid Blocks : 4767
Heartbeat CPU 6 instructions: 40000000 cycles: 29811161 heartbeat IPC: 1.31891 cumulative IPC: 1.34178 (Simulation time: 10 hr 54 min 44 sec) 
 Total Blocks : 262144 Invalid Blocks : 4766
Heartbeat CPU 3 instructions: 50000003 cycles: 37390449 heartbeat IPC: 1.31805 cumulative IPC: 1.33724 (Simulation time: 13 hr 3 min 54 sec) 
 Total Blocks : 262144 Invalid Blocks : 2124
Heartbeat CPU 4 instructions: 50000003 cycles: 37390849 heartbeat IPC: 1.3181 cumulative IPC: 1.33723 (Simulation time: 13 hr 4 min 0 sec) 
 Total Blocks : 262144 Invalid Blocks : 2124
Heartbeat CPU 2 instructions: 50000003 cycles: 37391573 heartbeat IPC: 1.31808 cumulative IPC: 1.3372 (Simulation time: 13 hr 4 min 2 sec) 
 Total Blocks : 262144 Invalid Blocks : 2122
Heartbeat CPU 1 instructions: 50000003 cycles: 37393802 heartbeat IPC: 1.31793 cumulative IPC: 1.33712 (Simulation time: 13 hr 4 min 4 sec) 
 Total Blocks : 262144 Invalid Blocks : 2122
Heartbeat CPU 5 instructions: 50000003 cycles: 37395720 heartbeat IPC: 1.3179 cumulative IPC: 1.33705 (Simulation time: 13 hr 4 min 5 sec) 
 Total Blocks : 262144 Invalid Blocks : 2121
Heartbeat CPU 0 instructions: 50000003 cycles: 37396359 heartbeat IPC: 1.31787 cumulative IPC: 1.33703 (Simulation time: 13 hr 4 min 5 sec) 
 Total Blocks : 262144 Invalid Blocks : 2121
Heartbeat CPU 7 instructions: 50000003 cycles: 37397835 heartbeat IPC: 1.31787 cumulative IPC: 1.33698 (Simulation time: 13 hr 4 min 6 sec) 
 Total Blocks : 262144 Invalid Blocks : 2121
Heartbeat CPU 6 instructions: 50000003 cycles: 37399507 heartbeat IPC: 1.31781 cumulative IPC: 1.33692 (Simulation time: 13 hr 4 min 7 sec) 
 Total Blocks : 262144 Invalid Blocks : 2121
Heartbeat CPU 3 instructions: 60000000 cycles: 44892544 heartbeat IPC: 1.33296 cumulative IPC: 1.33652 (Simulation time: 14 hr 58 min 24 sec) 
 Total Blocks : 262144 Invalid Blocks : 985
Heartbeat CPU 4 instructions: 60000000 cycles: 44892816 heartbeat IPC: 1.33298 cumulative IPC: 1.33652 (Simulation time: 14 hr 58 min 30 sec) 
 Total Blocks : 262144 Invalid Blocks : 985
Heartbeat CPU 2 instructions: 60000000 cycles: 44893618 heartbeat IPC: 1.33297 cumulative IPC: 1.33649 (Simulation time: 14 hr 58 min 32 sec) 
 Total Blocks : 262144 Invalid Blocks : 985
Heartbeat CPU 1 instructions: 60000000 cycles: 44896605 heartbeat IPC: 1.33283 cumulative IPC: 1.3364 (Simulation time: 14 hr 58 min 34 sec) 
 Total Blocks : 262144 Invalid Blocks : 985
Heartbeat CPU 5 instructions: 60000000 cycles: 44899112 heartbeat IPC: 1.33273 cumulative IPC: 1.33633 (Simulation time: 14 hr 58 min 36 sec) 
 Total Blocks : 262144 Invalid Blocks : 985
Heartbeat CPU 0 instructions: 60000000 cycles: 44899404 heartbeat IPC: 1.33279 cumulative IPC: 1.33632 (Simulation time: 14 hr 58 min 36 sec) 
 Total Blocks : 262144 Invalid Blocks : 985
Heartbeat CPU 7 instructions: 60000000 cycles: 44900804 heartbeat IPC: 1.33281 cumulative IPC: 1.33628 (Simulation time: 14 hr 58 min 36 sec) 
 Total Blocks : 262144 Invalid Blocks : 985
Heartbeat CPU 6 instructions: 60000000 cycles: 44903150 heartbeat IPC: 1.33269 cumulative IPC: 1.33621 (Simulation time: 14 hr 58 min 38 sec) 
 Total Blocks : 262144 Invalid Blocks : 985
Heartbeat CPU 3 instructions: 70000000 cycles: 52206239 heartbeat IPC: 1.3673 cumulative IPC: 1.34084 (Simulation time: 16 hr 41 min 57 sec) 
 Total Blocks : 262144 Invalid Blocks : 486
Heartbeat CPU 4 instructions: 70000000 cycles: 52206770 heartbeat IPC: 1.36725 cumulative IPC: 1.34082 (Simulation time: 16 hr 42 min 1 sec) 
 Total Blocks : 262144 Invalid Blocks : 486
Heartbeat CPU 2 instructions: 70000000 cycles: 52207032 heartbeat IPC: 1.36735 cumulative IPC: 1.34082 (Simulation time: 16 hr 42 min 1 sec) 
 Total Blocks : 262144 Invalid Blocks : 486
Heartbeat CPU 1 instructions: 70000000 cycles: 52210829 heartbeat IPC: 1.3672 cumulative IPC: 1.34072 (Simulation time: 16 hr 42 min 3 sec) 
 Total Blocks : 262144 Invalid Blocks : 486
Heartbeat CPU 5 instructions: 70000000 cycles: 52213822 heartbeat IPC: 1.36711 cumulative IPC: 1.34064 (Simulation time: 16 hr 42 min 5 sec) 
 Total Blocks : 262144 Invalid Blocks : 486
Heartbeat CPU 0 instructions: 70000000 cycles: 52213924 heartbeat IPC: 1.36714 cumulative IPC: 1.34064 (Simulation time: 16 hr 42 min 6 sec) 
 Total Blocks : 262144 Invalid Blocks : 486
Heartbeat CPU 7 instructions: 70000000 cycles: 52215296 heartbeat IPC: 1.36715 cumulative IPC: 1.3406 (Simulation time: 16 hr 42 min 6 sec) 
 Total Blocks : 262144 Invalid Blocks : 486
Heartbeat CPU 6 instructions: 70000000 cycles: 52218152 heartbeat IPC: 1.36705 cumulative IPC: 1.34053 (Simulation time: 16 hr 42 min 7 sec) 
 Total Blocks : 262144 Invalid Blocks : 486
Heartbeat CPU 3 instructions: 80000002 cycles: 59582126 heartbeat IPC: 1.35577 cumulative IPC: 1.34268 (Simulation time: 18 hr 16 min 15 sec) 
 Total Blocks : 262144 Invalid Blocks : 226
Heartbeat CPU 2 instructions: 80000002 cycles: 59582565 heartbeat IPC: 1.35583 cumulative IPC: 1.34267 (Simulation time: 18 hr 16 min 20 sec) 
 Total Blocks : 262144 Invalid Blocks : 226
Heartbeat CPU 4 instructions: 80000002 cycles: 59582816 heartbeat IPC: 1.35574 cumulative IPC: 1.34267 (Simulation time: 18 hr 16 min 21 sec) 
 Total Blocks : 262144 Invalid Blocks : 226
Heartbeat CPU 1 instructions: 80000002 cycles: 59587191 heartbeat IPC: 1.35568 cumulative IPC: 1.34257 (Simulation time: 18 hr 16 min 22 sec) 
 Total Blocks : 262144 Invalid Blocks : 225
Heartbeat CPU 0 instructions: 80000002 cycles: 59590538 heartbeat IPC: 1.35564 cumulative IPC: 1.3425 (Simulation time: 18 hr 16 min 24 sec) 
 Total Blocks : 262144 Invalid Blocks : 225
Heartbeat CPU 5 instructions: 80000002 cycles: 59590870 heartbeat IPC: 1.35556 cumulative IPC: 1.34249 (Simulation time: 18 hr 16 min 24 sec) 
 Total Blocks : 262144 Invalid Blocks : 225
Heartbeat CPU 7 instructions: 80000002 cycles: 59591682 heartbeat IPC: 1.35568 cumulative IPC: 1.34247 (Simulation time: 18 hr 16 min 24 sec) 
 Total Blocks : 262144 Invalid Blocks : 225
Heartbeat CPU 6 instructions: 80000002 cycles: 59595476 heartbeat IPC: 1.35551 cumulative IPC: 1.34238 (Simulation time: 18 hr 16 min 25 sec) 
 Total Blocks : 262144 Invalid Blocks : 225
Heartbeat CPU 3 instructions: 90000003 cycles: 67118033 heartbeat IPC: 1.32698 cumulative IPC: 1.34092 (Simulation time: 19 hr 45 min 34 sec) 
 Total Blocks : 262144 Invalid Blocks : 115
Heartbeat CPU 2 instructions: 90000003 cycles: 67118593 heartbeat IPC: 1.32696 cumulative IPC: 1.34091 (Simulation time: 19 hr 45 min 38 sec) 
 Total Blocks : 262144 Invalid Blocks : 115
Heartbeat CPU 4 instructions: 90000003 cycles: 67119355 heartbeat IPC: 1.32687 cumulative IPC: 1.34089 (Simulation time: 19 hr 45 min 38 sec) 
 Total Blocks : 262144 Invalid Blocks : 115
Heartbeat CPU 1 instructions: 90000003 cycles: 67123782 heartbeat IPC: 1.32686 cumulative IPC: 1.34081 (Simulation time: 19 hr 45 min 39 sec) 
 Total Blocks : 262144 Invalid Blocks : 115
Heartbeat CPU 0 instructions: 90000003 cycles: 67127390 heartbeat IPC: 1.32681 cumulative IPC: 1.34073 (Simulation time: 19 hr 45 min 43 sec) 
 Total Blocks : 262144 Invalid Blocks : 115
Heartbeat CPU 5 instructions: 90000003 cycles: 67128103 heartbeat IPC: 1.32675 cumulative IPC: 1.34072 (Simulation time: 19 hr 45 min 43 sec) 
 Total Blocks : 262144 Invalid Blocks : 114
Heartbeat CPU 7 instructions: 90000003 cycles: 67128336 heartbeat IPC: 1.32685 cumulative IPC: 1.34072 (Simulation time: 19 hr 45 min 43 sec) 
 Total Blocks : 262144 Invalid Blocks : 114
Heartbeat CPU 6 instructions: 90000003 cycles: 67133381 heartbeat IPC: 1.32663 cumulative IPC: 1.34061 (Simulation time: 19 hr 45 min 46 sec) 
 Total Blocks : 262144 Invalid Blocks : 114
Heartbeat CPU 3 instructions: 100000002 cycles: 74280947 heartbeat IPC: 1.39608 cumulative IPC: 1.34624 (Simulation time: 21 hr 13 min 30 sec) 
 Total Blocks : 262144 Invalid Blocks : 61
Heartbeat CPU 2 instructions: 100000002 cycles: 74282122 heartbeat IPC: 1.39596 cumulative IPC: 1.34622 (Simulation time: 21 hr 13 min 33 sec) 
 Total Blocks : 262144 Invalid Blocks : 61
Heartbeat CPU 4 instructions: 100000002 cycles: 74283055 heartbeat IPC: 1.39593 cumulative IPC: 1.3462 (Simulation time: 21 hr 13 min 33 sec) 
 Total Blocks : 262144 Invalid Blocks : 61
Heartbeat CPU 1 instructions: 100000002 cycles: 74287249 heartbeat IPC: 1.39597 cumulative IPC: 1.34613 (Simulation time: 21 hr 13 min 35 sec) 
 Total Blocks : 262144 Invalid Blocks : 61
Heartbeat CPU 0 instructions: 100000002 cycles: 74291244 heartbeat IPC: 1.3959 cumulative IPC: 1.34605 (Simulation time: 21 hr 13 min 37 sec) 
 Total Blocks : 262144 Invalid Blocks : 61
Heartbeat CPU 5 instructions: 100000002 cycles: 74291782 heartbeat IPC: 1.39593 cumulative IPC: 1.34604 (Simulation time: 21 hr 13 min 37 sec) 
 Total Blocks : 262144 Invalid Blocks : 61
Heartbeat CPU 7 instructions: 100000002 cycles: 74291828 heartbeat IPC: 1.39597 cumulative IPC: 1.34604 (Simulation time: 21 hr 13 min 37 sec) 
 Total Blocks : 262144 Invalid Blocks : 61
Heartbeat CPU 6 instructions: 100000002 cycles: 74297858 heartbeat IPC: 1.39578 cumulative IPC: 1.34593 (Simulation time: 21 hr 13 min 40 sec) 
 Total Blocks : 262144 Invalid Blocks : 61
Heartbeat CPU 3 instructions: 110000000 cycles: 81502420 heartbeat IPC: 1.38476 cumulative IPC: 1.34965 (Simulation time: 22 hr 37 min 13 sec) 
 Total Blocks : 262144 Invalid Blocks : 30
Heartbeat CPU 2 instructions: 110000000 cycles: 81504561 heartbeat IPC: 1.38457 cumulative IPC: 1.34962 (Simulation time: 22 hr 37 min 17 sec) 
 Total Blocks : 262144 Invalid Blocks : 30
Heartbeat CPU 4 instructions: 110000000 cycles: 81505589 heartbeat IPC: 1.38456 cumulative IPC: 1.3496 (Simulation time: 22 hr 37 min 17 sec) 
 Total Blocks : 262144 Invalid Blocks : 30
Heartbeat CPU 1 instructions: 110000000 cycles: 81509255 heartbeat IPC: 1.38466 cumulative IPC: 1.34954 (Simulation time: 22 hr 37 min 19 sec) 
 Total Blocks : 262144 Invalid Blocks : 30
Heartbeat CPU 0 instructions: 110000000 cycles: 81513412 heartbeat IPC: 1.38463 cumulative IPC: 1.34947 (Simulation time: 22 hr 37 min 20 sec) 
 Total Blocks : 262144 Invalid Blocks : 30
Heartbeat CPU 7 instructions: 110000000 cycles: 81513871 heartbeat IPC: 1.38465 cumulative IPC: 1.34946 (Simulation time: 22 hr 37 min 20 sec) 
 Total Blocks : 262144 Invalid Blocks : 30
Heartbeat CPU 5 instructions: 110000000 cycles: 81514400 heartbeat IPC: 1.38454 cumulative IPC: 1.34945 (Simulation time: 22 hr 37 min 21 sec) 
 Total Blocks : 262144 Invalid Blocks : 30
Heartbeat CPU 6 instructions: 110000000 cycles: 81521694 heartbeat IPC: 1.38431 cumulative IPC: 1.34933 (Simulation time: 22 hr 37 min 23 sec) 
 Total Blocks : 262144 Invalid Blocks : 30
Heartbeat CPU 3 instructions: 120000002 cycles: 89041902 heartbeat IPC: 1.32635 cumulative IPC: 1.34768 (Simulation time: 23 hr 58 min 1 sec) 
 Total Blocks : 262144 Invalid Blocks : 16
Heartbeat CPU 2 instructions: 120000002 cycles: 89044866 heartbeat IPC: 1.32621 cumulative IPC: 1.34764 (Simulation time: 23 hr 58 min 5 sec) 
 Total Blocks : 262144 Invalid Blocks : 16
Heartbeat CPU 4 instructions: 120000002 cycles: 89046307 heartbeat IPC: 1.32613 cumulative IPC: 1.34761 (Simulation time: 23 hr 58 min 5 sec) 
 Total Blocks : 262144 Invalid Blocks : 16
Heartbeat CPU 1 instructions: 120000002 cycles: 89049043 heartbeat IPC: 1.3263 cumulative IPC: 1.34757 (Simulation time: 23 hr 58 min 6 sec) 
 Total Blocks : 262144 Invalid Blocks : 16
Heartbeat CPU 0 instructions: 120000002 cycles: 89053796 heartbeat IPC: 1.32619 cumulative IPC: 1.3475 (Simulation time: 23 hr 58 min 8 sec) 
 Total Blocks : 262144 Invalid Blocks : 16
Heartbeat CPU 7 instructions: 120000002 cycles: 89054537 heartbeat IPC: 1.32614 cumulative IPC: 1.34749 (Simulation time: 23 hr 58 min 8 sec) 
 Total Blocks : 262144 Invalid Blocks : 16
Heartbeat CPU 5 instructions: 120000002 cycles: 89055032 heartbeat IPC: 1.32615 cumulative IPC: 1.34748 (Simulation time: 23 hr 58 min 9 sec) 
 Total Blocks : 262144 Invalid Blocks : 16
Heartbeat CPU 6 instructions: 120000002 cycles: 89063616 heartbeat IPC: 1.32592 cumulative IPC: 1.34735 (Simulation time: 23 hr 58 min 12 sec) 
 Total Blocks : 262144 Invalid Blocks : 16
Heartbeat CPU 3 instructions: 130000001 cycles: 96267854 heartbeat IPC: 1.3839 cumulative IPC: 1.3504 (Simulation time: 25 hr 14 min 21 sec) 
 Total Blocks : 262144 Invalid Blocks : 9
Heartbeat CPU 2 instructions: 130000001 cycles: 96271155 heartbeat IPC: 1.38384 cumulative IPC: 1.35035 (Simulation time: 25 hr 14 min 23 sec) 
 Total Blocks : 262144 Invalid Blocks : 9
Heartbeat CPU 4 instructions: 130000001 cycles: 96272852 heartbeat IPC: 1.38379 cumulative IPC: 1.35033 (Simulation time: 25 hr 14 min 24 sec) 
 Total Blocks : 262144 Invalid Blocks : 9
Heartbeat CPU 1 instructions: 130000001 cycles: 96274848 heartbeat IPC: 1.38393 cumulative IPC: 1.3503 (Simulation time: 25 hr 14 min 25 sec) 
 Total Blocks : 262144 Invalid Blocks : 9
Heartbeat CPU 0 instructions: 130000001 cycles: 96279971 heartbeat IPC: 1.38386 cumulative IPC: 1.35023 (Simulation time: 25 hr 14 min 27 sec) 
 Total Blocks : 262144 Invalid Blocks : 9
Heartbeat CPU 7 instructions: 130000001 cycles: 96280990 heartbeat IPC: 1.3838 cumulative IPC: 1.35021 (Simulation time: 25 hr 14 min 27 sec) 
 Total Blocks : 262144 Invalid Blocks : 9
Heartbeat CPU 5 instructions: 130000001 cycles: 96281292 heartbeat IPC: 1.38384 cumulative IPC: 1.35021 (Simulation time: 25 hr 14 min 27 sec) 
 Total Blocks : 262144 Invalid Blocks : 9
Heartbeat CPU 6 instructions: 130000001 cycles: 96291529 heartbeat IPC: 1.38353 cumulative IPC: 1.35007 (Simulation time: 25 hr 14 min 31 sec) 
 Total Blocks : 262144 Invalid Blocks : 9
Heartbeat CPU 3 instructions: 140000003 cycles: 102967411 heartbeat IPC: 1.49264 cumulative IPC: 1.35965 (Simulation time: 26 hr 24 min 55 sec) 
 Total Blocks : 262144 Invalid Blocks : 4
Heartbeat CPU 2 instructions: 140000003 cycles: 102971122 heartbeat IPC: 1.49255 cumulative IPC: 1.3596 (Simulation time: 26 hr 25 min 2 sec) 
 Total Blocks : 262144 Invalid Blocks : 4
Heartbeat CPU 4 instructions: 140000003 cycles: 102973090 heartbeat IPC: 1.49248 cumulative IPC: 1.35958 (Simulation time: 26 hr 25 min 2 sec) 
 Total Blocks : 262144 Invalid Blocks : 4
Heartbeat CPU 1 instructions: 140000003 cycles: 102974420 heartbeat IPC: 1.49263 cumulative IPC: 1.35956 (Simulation time: 26 hr 25 min 3 sec) 
 Total Blocks : 262144 Invalid Blocks : 4
Heartbeat CPU 0 instructions: 140000003 cycles: 102979864 heartbeat IPC: 1.49256 cumulative IPC: 1.35949 (Simulation time: 26 hr 25 min 4 sec) 
 Total Blocks : 262144 Invalid Blocks : 4
Heartbeat CPU 5 instructions: 140000003 cycles: 102981162 heartbeat IPC: 1.49257 cumulative IPC: 1.35947 (Simulation time: 26 hr 25 min 5 sec) 
 Total Blocks : 262144 Invalid Blocks : 4
Heartbeat CPU 7 instructions: 140000003 cycles: 102981366 heartbeat IPC: 1.49245 cumulative IPC: 1.35947 (Simulation time: 26 hr 25 min 5 sec) 
 Total Blocks : 262144 Invalid Blocks : 4
Heartbeat CPU 6 instructions: 140000003 cycles: 102992727 heartbeat IPC: 1.49227 cumulative IPC: 1.35932 (Simulation time: 26 hr 25 min 10 sec) 
 Total Blocks : 262144 Invalid Blocks : 4
Heartbeat CPU 3 instructions: 150000000 cycles: 110141766 heartbeat IPC: 1.39385 cumulative IPC: 1.36188 (Simulation time: 27 hr 37 min 56 sec) 
 Total Blocks : 262144 Invalid Blocks : 2
Heartbeat CPU 2 instructions: 150000000 cycles: 110145959 heartbeat IPC: 1.39376 cumulative IPC: 1.36183 (Simulation time: 27 hr 37 min 59 sec) 
 Total Blocks : 262144 Invalid Blocks : 2
Heartbeat CPU 4 instructions: 150000000 cycles: 110147897 heartbeat IPC: 1.39377 cumulative IPC: 1.36181 (Simulation time: 27 hr 38 min 0 sec) 
 Total Blocks : 262144 Invalid Blocks : 2
Heartbeat CPU 1 instructions: 150000000 cycles: 110148302 heartbeat IPC: 1.39394 cumulative IPC: 1.3618 (Simulation time: 27 hr 38 min 0 sec) 
 Total Blocks : 262144 Invalid Blocks : 2
Heartbeat CPU 0 instructions: 150000000 cycles: 110154419 heartbeat IPC: 1.39381 cumulative IPC: 1.36172 (Simulation time: 27 hr 38 min 10 sec) 
 Total Blocks : 262144 Invalid Blocks : 2
Heartbeat CPU 5 instructions: 150000000 cycles: 110155444 heartbeat IPC: 1.39387 cumulative IPC: 1.36171 (Simulation time: 27 hr 38 min 11 sec) 
 Total Blocks : 262144 Invalid Blocks : 2
Heartbeat CPU 7 instructions: 150000000 cycles: 110156262 heartbeat IPC: 1.39375 cumulative IPC: 1.3617 (Simulation time: 27 hr 38 min 11 sec) 
 Total Blocks : 262144 Invalid Blocks : 2
Heartbeat CPU 6 instructions: 150000000 cycles: 110169171 heartbeat IPC: 1.39345 cumulative IPC: 1.36154 (Simulation time: 27 hr 38 min 23 sec) 
 Total Blocks : 262144 Invalid Blocks : 2
Heartbeat CPU 3 instructions: 160000000 cycles: 117366021 heartbeat IPC: 1.38423 cumulative IPC: 1.36326 (Simulation time: 28 hr 49 min 10 sec) 
 Total Blocks : 262144 Invalid Blocks : 1
Heartbeat CPU 2 instructions: 160000000 cycles: 117370630 heartbeat IPC: 1.38415 cumulative IPC: 1.3632 (Simulation time: 28 hr 49 min 13 sec) 
 Total Blocks : 262144 Invalid Blocks : 1
Heartbeat CPU 1 instructions: 160000000 cycles: 117371977 heartbeat IPC: 1.38434 cumulative IPC: 1.36319 (Simulation time: 28 hr 49 min 14 sec) 
 Total Blocks : 262144 Invalid Blocks : 1
Heartbeat CPU 4 instructions: 160000000 cycles: 117372531 heartbeat IPC: 1.38415 cumulative IPC: 1.36318 (Simulation time: 28 hr 49 min 14 sec) 
 Total Blocks : 262144 Invalid Blocks : 1
Heartbeat CPU 0 instructions: 160000000 cycles: 117379117 heartbeat IPC: 1.38414 cumulative IPC: 1.3631 (Simulation time: 28 hr 49 min 17 sec) 
 Total Blocks : 262144 Invalid Blocks : 1
Heartbeat CPU 5 instructions: 160000000 cycles: 117379349 heartbeat IPC: 1.38429 cumulative IPC: 1.3631 (Simulation time: 28 hr 49 min 17 sec) 
 Total Blocks : 262144 Invalid Blocks : 1
Heartbeat CPU 7 instructions: 160000000 cycles: 117380513 heartbeat IPC: 1.38423 cumulative IPC: 1.36309 (Simulation time: 28 hr 49 min 17 sec) 
 Total Blocks : 262144 Invalid Blocks : 1
Heartbeat CPU 6 instructions: 160000000 cycles: 117395542 heartbeat IPC: 1.38382 cumulative IPC: 1.36291 (Simulation time: 28 hr 49 min 24 sec) 
 Total Blocks : 262144 Invalid Blocks : 1
Heartbeat CPU 3 instructions: 170000003 cycles: 124351454 heartbeat IPC: 1.43155 cumulative IPC: 1.36709 (Simulation time: 29 hr 54 min 22 sec) 
 Total Blocks : 262144 Invalid Blocks : 0
Heartbeat CPU 2 instructions: 170000003 cycles: 124356224 heartbeat IPC: 1.43152 cumulative IPC: 1.36704 (Simulation time: 29 hr 54 min 26 sec) 
 Total Blocks : 262144 Invalid Blocks : 0
Heartbeat CPU 1 instructions: 170000003 cycles: 124357297 heartbeat IPC: 1.43157 cumulative IPC: 1.36703 (Simulation time: 29 hr 54 min 26 sec) 
 Total Blocks : 262144 Invalid Blocks : 0
Heartbeat CPU 4 instructions: 170000003 cycles: 124358129 heartbeat IPC: 1.43152 cumulative IPC: 1.36702 (Simulation time: 29 hr 54 min 26 sec) 
 Total Blocks : 262144 Invalid Blocks : 0
Heartbeat CPU 0 instructions: 170000003 cycles: 124364777 heartbeat IPC: 1.4315 cumulative IPC: 1.36695 (Simulation time: 29 hr 54 min 28 sec) 
 Total Blocks : 262144 Invalid Blocks : 0
Heartbeat CPU 5 instructions: 170000003 cycles: 124364814 heartbeat IPC: 1.43154 cumulative IPC: 1.36695 (Simulation time: 29 hr 54 min 28 sec) 
 Total Blocks : 262144 Invalid Blocks : 0
Heartbeat CPU 7 instructions: 170000003 cycles: 124365920 heartbeat IPC: 1.43156 cumulative IPC: 1.36693 (Simulation time: 29 hr 54 min 29 sec) 
 Total Blocks : 262144 Invalid Blocks : 0
Heartbeat CPU 6 instructions: 170000003 cycles: 124381624 heartbeat IPC: 1.43142 cumulative IPC: 1.36676 (Simulation time: 29 hr 54 min 44 sec) 
 Total Blocks : 262144 Invalid Blocks : 0
Heartbeat CPU 3 instructions: 180000000 cycles: 131299508 heartbeat IPC: 1.43925 cumulative IPC: 1.37091 (Simulation time: 30 hr 53 min 20 sec) 
 Total Blocks : 262144 Invalid Blocks : 0
Heartbeat CPU 2 instructions: 180000000 cycles: 131303987 heartbeat IPC: 1.43931 cumulative IPC: 1.37086 (Simulation time: 30 hr 53 min 23 sec) 
 Total Blocks : 262144 Invalid Blocks : 0
Heartbeat CPU 1 instructions: 180000000 cycles: 131305107 heartbeat IPC: 1.4393 cumulative IPC: 1.37085 (Simulation time: 30 hr 53 min 24 sec) 
 Total Blocks : 262144 Invalid Blocks : 0
Heartbeat CPU 4 instructions: 180000000 cycles: 131306052 heartbeat IPC: 1.43928 cumulative IPC: 1.37084 (Simulation time: 30 hr 53 min 24 sec) 
 Total Blocks : 262144 Invalid Blocks : 0
Heartbeat CPU 0 instructions: 180000000 cycles: 131312663 heartbeat IPC: 1.43929 cumulative IPC: 1.37077 (Simulation time: 30 hr 53 min 26 sec) 
 Total Blocks : 262144 Invalid Blocks : 0
Heartbeat CPU 5 instructions: 180000000 cycles: 131312768 heartbeat IPC: 1.43927 cumulative IPC: 1.37077 (Simulation time: 30 hr 53 min 26 sec) 
 Total Blocks : 262144 Invalid Blocks : 0
Heartbeat CPU 7 instructions: 180000000 cycles: 131313794 heartbeat IPC: 1.43929 cumulative IPC: 1.37076 (Simulation time: 30 hr 53 min 26 sec) 
 Total Blocks : 262144 Invalid Blocks : 0
Heartbeat CPU 6 instructions: 180000000 cycles: 131329612 heartbeat IPC: 1.43927 cumulative IPC: 1.3706 (Simulation time: 30 hr 53 min 32 sec) 
 Total Blocks : 262144 Invalid Blocks : 0
Heartbeat CPU 3 instructions: 190000001 cycles: 138431087 heartbeat IPC: 1.40221 cumulative IPC: 1.37252 (Simulation time: 31 hr 49 min 59 sec) 
 Total Blocks : 262144 Invalid Blocks : 0
Heartbeat CPU 2 instructions: 190000001 cycles: 138435675 heartbeat IPC: 1.40219 cumulative IPC: 1.37248 (Simulation time: 31 hr 50 min 3 sec) 
 Total Blocks : 262144 Invalid Blocks : 0
Heartbeat CPU 1 instructions: 190000001 cycles: 138436883 heartbeat IPC: 1.40218 cumulative IPC: 1.37247 (Simulation time: 31 hr 50 min 4 sec) 
 Total Blocks : 262144 Invalid Blocks : 0
Heartbeat CPU 4 instructions: 190000001 cycles: 138437766 heartbeat IPC: 1.40219 cumulative IPC: 1.37246 (Simulation time: 31 hr 50 min 7 sec) 
 Total Blocks : 262144 Invalid Blocks : 0
Heartbeat CPU 5 instructions: 190000001 cycles: 138444387 heartbeat IPC: 1.40221 cumulative IPC: 1.37239 (Simulation time: 31 hr 50 min 10 sec) 
 Total Blocks : 262144 Invalid Blocks : 0
Heartbeat CPU 0 instructions: 190000001 cycles: 138444461 heartbeat IPC: 1.40217 cumulative IPC: 1.37239 (Simulation time: 31 hr 50 min 10 sec) 
 Total Blocks : 262144 Invalid Blocks : 0
Heartbeat CPU 7 instructions: 190000001 cycles: 138445450 heartbeat IPC: 1.4022 cumulative IPC: 1.37238 (Simulation time: 31 hr 50 min 10 sec) 
 Total Blocks : 262144 Invalid Blocks : 0
Heartbeat CPU 6 instructions: 190000001 cycles: 138461446 heartbeat IPC: 1.40216 cumulative IPC: 1.37222 (Simulation time: 31 hr 50 min 15 sec) 
 Total Blocks : 262144 Invalid Blocks : 0
Heartbeat CPU 3 instructions: 200000002 cycles: 145688245 heartbeat IPC: 1.37795 cumulative IPC: 1.37279 (Simulation time: 32 hr 44 min 15 sec) 
 Total Blocks : 262144 Invalid Blocks : 0
Heartbeat CPU 2 instructions: 200000002 cycles: 145693034 heartbeat IPC: 1.37791 cumulative IPC: 1.37275 (Simulation time: 32 hr 44 min 34 sec) 
 Total Blocks : 262144 Invalid Blocks : 0
Heartbeat CPU 1 instructions: 200000002 cycles: 145694278 heartbeat IPC: 1.37791 cumulative IPC: 1.37274 (Simulation time: 32 hr 44 min 34 sec) 
 Total Blocks : 262144 Invalid Blocks : 0
Heartbeat CPU 4 instructions: 200000002 cycles: 145695099 heartbeat IPC: 1.37792 cumulative IPC: 1.37273 (Simulation time: 32 hr 44 min 35 sec) 
 Total Blocks : 262144 Invalid Blocks : 0
Heartbeat CPU 5 instructions: 200000002 cycles: 145701837 heartbeat IPC: 1.37789 cumulative IPC: 1.37267 (Simulation time: 32 hr 44 min 37 sec) 
 Total Blocks : 262144 Invalid Blocks : 0
Heartbeat CPU 0 instructions: 200000002 cycles: 145701948 heartbeat IPC: 1.37789 cumulative IPC: 1.37267 (Simulation time: 32 hr 44 min 37 sec) 
 Total Blocks : 262144 Invalid Blocks : 0
Heartbeat CPU 7 instructions: 200000002 cycles: 145702523 heartbeat IPC: 1.37797 cumulative IPC: 1.37266 (Simulation time: 32 hr 44 min 37 sec) 
 Total Blocks : 262144 Invalid Blocks : 0
Heartbeat CPU 6 instructions: 200000002 cycles: 145718850 heartbeat IPC: 1.3779 cumulative IPC: 1.37251 (Simulation time: 32 hr 44 min 42 sec) 
 Total Blocks : 262144 Invalid Blocks : 0

Warmup complete CPU 0 instructions: 200021725 cycles: 145718850 (Simulation time: 32 hr 44 min 43 sec) 
Warmup complete CPU 1 instructions: 200031953 cycles: 145718850 (Simulation time: 32 hr 44 min 43 sec) 
Warmup complete CPU 2 instructions: 200033459 cycles: 145718850 (Simulation time: 32 hr 44 min 43 sec) 
Warmup complete CPU 3 instructions: 200039554 cycles: 145718850 (Simulation time: 32 hr 44 min 43 sec) 
Warmup complete CPU 4 instructions: 200031027 cycles: 145718850 (Simulation time: 32 hr 44 min 43 sec) 
Warmup complete CPU 5 instructions: 200021811 cycles: 145718850 (Simulation time: 32 hr 44 min 43 sec) 
Warmup complete CPU 6 instructions: 200000002 cycles: 145718850 (Simulation time: 32 hr 44 min 43 sec) 
Warmup complete CPU 7 instructions: 200020997 cycles: 145718849 (Simulation time: 32 hr 44 min 43 sec) 

Heartbeat CPU 0 instructions: 210000003 cycles: 161115055 heartbeat IPC: 0.648799 cumulative IPC: 0.6481 (Simulation time: 33 hr 58 min 47 sec) 
 Total Blocks : 262144 Invalid Blocks : 0
Heartbeat CPU 2 instructions: 210000003 cycles: 161115784 heartbeat IPC: 0.648393 cumulative IPC: 0.647307 (Simulation time: 33 hr 58 min 49 sec) 
 Total Blocks : 262144 Invalid Blocks : 0
Heartbeat CPU 3 instructions: 210000003 cycles: 161118485 heartbeat IPC: 0.648078 cumulative IPC: 0.646798 (Simulation time: 33 hr 58 min 50 sec) 
 Total Blocks : 262144 Invalid Blocks : 0
Heartbeat CPU 5 instructions: 210000003 cycles: 161144082 heartbeat IPC: 0.647574 cumulative IPC: 0.646875 (Simulation time: 33 hr 58 min 58 sec) 
 Total Blocks : 262144 Invalid Blocks : 0
Heartbeat CPU 1 instructions: 210000003 cycles: 161149367 heartbeat IPC: 0.647036 cumulative IPC: 0.645996 (Simulation time: 33 hr 59 min 1 sec) 
 Total Blocks : 262144 Invalid Blocks : 0
Heartbeat CPU 4 instructions: 210000003 cycles: 161151727 heartbeat IPC: 0.646972 cumulative IPC: 0.645957 (Simulation time: 33 hr 59 min 1 sec) 
 Total Blocks : 262144 Invalid Blocks : 0
Heartbeat CPU 7 instructions: 210000003 cycles: 161183088 heartbeat IPC: 0.645971 cumulative IPC: 0.645296 (Simulation time: 33 hr 59 min 12 sec) 
 Total Blocks : 262144 Invalid Blocks : 0
Heartbeat CPU 6 instructions: 210000003 cycles: 161247085 heartbeat IPC: 0.643988 cumulative IPC: 0.643988 (Simulation time: 33 hr 59 min 48 sec) 
 Total Blocks : 262144 Invalid Blocks : 0
Heartbeat CPU 0 instructions: 220000000 cycles: 176697479 heartbeat IPC: 0.641748 cumulative IPC: 0.644905 (Simulation time: 35 hr 12 min 51 sec) 
 Total Blocks : 262144 Invalid Blocks : 0
Heartbeat CPU 2 instructions: 220000000 cycles: 176730744 heartbeat IPC: 0.640411 cumulative IPC: 0.643835 (Simulation time: 35 hr 13 min 2 sec) 
 Total Blocks : 262144 Invalid Blocks : 0
Heartbeat CPU 3 instructions: 220000000 cycles: 176751557 heartbeat IPC: 0.639669 cumulative IPC: 0.643207 (Simulation time: 35 hr 13 min 8 sec) 
 Total Blocks : 262144 Invalid Blocks : 0
Heartbeat CPU 1 instructions: 220000000 cycles: 176761477 heartbeat IPC: 0.640528 cumulative IPC: 0.643246 (Simulation time: 35 hr 13 min 12 sec) 
 Total Blocks : 262144 Invalid Blocks : 0
Heartbeat CPU 5 instructions: 220000000 cycles: 176763043 heartbeat IPC: 0.640247 cumulative IPC: 0.64354 (Simulation time: 35 hr 13 min 12 sec) 
 Total Blocks : 262144 Invalid Blocks : 0
Heartbeat CPU 4 instructions: 220000000 cycles: 176791437 heartbeat IPC: 0.639398 cumulative IPC: 0.642656 (Simulation time: 35 hr 13 min 17 sec) 
 Total Blocks : 262144 Invalid Blocks : 0
Heartbeat CPU 7 instructions: 220000000 cycles: 176850996 heartbeat IPC: 0.638247 cumulative IPC: 0.641748 (Simulation time: 35 hr 13 min 49 sec) 
 Total Blocks : 262144 Invalid Blocks : 0
Heartbeat CPU 6 instructions: 220000000 cycles: 176975173 heartbeat IPC: 0.635805 cumulative IPC: 0.63987 (Simulation time: 35 hr 14 min 21 sec) 
 Total Blocks : 262144 Invalid Blocks : 0
Heartbeat CPU 0 instructions: 230000001 cycles: 192633884 heartbeat IPC: 0.627494 cumulative IPC: 0.638991 (Simulation time: 36 hr 30 min 9 sec) 
 Total Blocks : 262144 Invalid Blocks : 0
Heartbeat CPU 2 instructions: 230000001 cycles: 192701689 heartbeat IPC: 0.626137 cumulative IPC: 0.637819 (Simulation time: 36 hr 30 min 30 sec) 
 Total Blocks : 262144 Invalid Blocks : 0
Heartbeat CPU 3 instructions: 230000001 cycles: 192709242 heartbeat IPC: 0.626657 cumulative IPC: 0.637587 (Simulation time: 36 hr 30 min 33 sec) 
 Total Blocks : 262144 Invalid Blocks : 0
Heartbeat CPU 5 instructions: 230000001 cycles: 192709441 heartbeat IPC: 0.627101 cumulative IPC: 0.637962 (Simulation time: 36 hr 30 min 33 sec) 
 Total Blocks : 262144 Invalid Blocks : 0
Heartbeat CPU 1 instructions: 230000001 cycles: 192711487 heartbeat IPC: 0.626959 cumulative IPC: 0.637718 (Simulation time: 36 hr 30 min 34 sec) 
 Total Blocks : 262144 Invalid Blocks : 0
Heartbeat CPU 4 instructions: 230000001 cycles: 192771020 heartbeat IPC: 0.625799 cumulative IPC: 0.636931 (Simulation time: 36 hr 31 min 5 sec) 
 Total Blocks : 262144 Invalid Blocks : 0
Heartbeat CPU 7 instructions: 230000001 cycles: 192835712 heartbeat IPC: 0.625598 cumulative IPC: 0.636269 (Simulation time: 36 hr 31 min 27 sec) 
 Total Blocks : 262144 Invalid Blocks : 0
Heartbeat CPU 6 instructions: 230000001 cycles: 193035223 heartbeat IPC: 0.622663 cumulative IPC: 0.63403 (Simulation time: 36 hr 32 min 42 sec) 
 Total Blocks : 262144 Invalid Blocks : 0
Heartbeat CPU 0 instructions: 240000001 cycles: 208488040 heartbeat IPC: 0.630749 cumulative IPC: 0.636909 (Simulation time: 37 hr 47 min 9 sec) 
 Total Blocks : 262144 Invalid Blocks : 0
Heartbeat CPU 1 instructions: 240000001 cycles: 208544717 heartbeat IPC: 0.631583 cumulative IPC: 0.636172 (Simulation time: 37 hr 47 min 24 sec) 
 Total Blocks : 262144 Invalid Blocks : 0
Heartbeat CPU 3 instructions: 240000001 cycles: 208545736 heartbeat IPC: 0.631453 cumulative IPC: 0.636041 (Simulation time: 37 hr 47 min 26 sec) 
 Total Blocks : 262144 Invalid Blocks : 0
Heartbeat CPU 5 instructions: 240000001 cycles: 208553508 heartbeat IPC: 0.631151 cumulative IPC: 0.636244 (Simulation time: 37 hr 47 min 28 sec) 
 Total Blocks : 262144 Invalid Blocks : 0
Heartbeat CPU 2 instructions: 240000001 cycles: 208554594 heartbeat IPC: 0.630799 cumulative IPC: 0.636048 (Simulation time: 37 hr 47 min 28 sec) 
 Total Blocks : 262144 Invalid Blocks : 0
Heartbeat CPU 4 instructions: 240000001 cycles: 208664214 heartbeat IPC: 0.6292 cumulative IPC: 0.634979 (Simulation time: 37 hr 48 min 3 sec) 
 Total Blocks : 262144 Invalid Blocks : 0
Heartbeat CPU 7 instructions: 240000001 cycles: 208718664 heartbeat IPC: 0.629606 cumulative IPC: 0.634589 (Simulation time: 37 hr 48 min 16 sec) 
 Total Blocks : 262144 Invalid Blocks : 0
Heartbeat CPU 6 instructions: 240000001 cycles: 209002498 heartbeat IPC: 0.626281 cumulative IPC: 0.632075 (Simulation time: 37 hr 49 min 33 sec) 
 Total Blocks : 262144 Invalid Blocks : 0
Heartbeat CPU 0 instructions: 250000002 cycles: 224285942 heartbeat IPC: 0.632995 cumulative IPC: 0.636122 (Simulation time: 39 hr 1 min 19 sec) 
 Total Blocks : 262144 Invalid Blocks : 0
Heartbeat CPU 2 instructions: 250000002 cycles: 224309548 heartbeat IPC: 0.634721 cumulative IPC: 0.635782 (Simulation time: 39 hr 1 min 25 sec) 
 Total Blocks : 262144 Invalid Blocks : 0
Heartbeat CPU 1 instructions: 250000002 cycles: 224311608 heartbeat IPC: 0.634241 cumulative IPC: 0.635784 (Simulation time: 39 hr 1 min 26 sec) 
 Total Blocks : 262144 Invalid Blocks : 0
Heartbeat CPU 3 instructions: 250000002 cycles: 224318260 heartbeat IPC: 0.634014 cumulative IPC: 0.635634 (Simulation time: 39 hr 1 min 27 sec) 
 Total Blocks : 262144 Invalid Blocks : 0
Heartbeat CPU 5 instructions: 250000002 cycles: 224333778 heartbeat IPC: 0.633703 cumulative IPC: 0.635734 (Simulation time: 39 hr 1 min 30 sec) 
 Total Blocks : 262144 Invalid Blocks : 0
Heartbeat CPU 4 instructions: 250000002 cycles: 224506179 heartbeat IPC: 0.631235 cumulative IPC: 0.634226 (Simulation time: 39 hr 2 min 24 sec) 
 Total Blocks : 262144 Invalid Blocks : 0
Heartbeat CPU 7 instructions: 250000002 cycles: 224534919 heartbeat IPC: 0.632261 cumulative IPC: 0.634122 (Simulation time: 39 hr 2 min 32 sec) 
 Total Blocks : 262144 Invalid Blocks : 0
Heartbeat CPU 6 instructions: 250000002 cycles: 224936628 heartbeat IPC: 0.627584 cumulative IPC: 0.631171 (Simulation time: 39 hr 4 min 18 sec) 
 Total Blocks : 262144 Invalid Blocks : 0
Heartbeat CPU 0 instructions: 260000001 cycles: 240082064 heartbeat IPC: 0.633067 cumulative IPC: 0.635611 (Simulation time: 40 hr 10 min 49 sec) 
 Total Blocks : 262144 Invalid Blocks : 0
Heartbeat CPU 3 instructions: 260000001 cycles: 240082329 heartbeat IPC: 0.634354 cumulative IPC: 0.63542 (Simulation time: 40 hr 10 min 50 sec) 
 Total Blocks : 262144 Invalid Blocks : 0
Heartbeat CPU 2 instructions: 260000001 cycles: 240082773 heartbeat IPC: 0.633986 cumulative IPC: 0.635482 (Simulation time: 40 hr 10 min 51 sec) 
 Total Blocks : 262144 Invalid Blocks : 0
Heartbeat CPU 1 instructions: 260000001 cycles: 240098845 heartbeat IPC: 0.633423 cumulative IPC: 0.635389 (Simulation time: 40 hr 10 min 59 sec) 
 Total Blocks : 262144 Invalid Blocks : 0
Heartbeat CPU 5 instructions: 260000001 cycles: 240145985 heartbeat IPC: 0.632423 cumulative IPC: 0.63518 (Simulation time: 40 hr 11 min 16 sec) 
 Total Blocks : 262144 Invalid Blocks : 0
Heartbeat CPU 4 instructions: 260000001 cycles: 240337826 heartbeat IPC: 0.631646 cumulative IPC: 0.633794 (Simulation time: 40 hr 12 min 2 sec) 
 Total Blocks : 262144 Invalid Blocks : 0
Heartbeat CPU 7 instructions: 260000001 cycles: 240363351 heartbeat IPC: 0.631774 cumulative IPC: 0.633729 (Simulation time: 40 hr 12 min 21 sec) 
 Total Blocks : 262144 Invalid Blocks : 0
Heartbeat CPU 6 instructions: 260000001 cycles: 240891661 heartbeat IPC: 0.626761 cumulative IPC: 0.630432 (Simulation time: 40 hr 15 min 8 sec) 
 Total Blocks : 262144 Invalid Blocks : 0
Heartbeat CPU 0 instructions: 270000003 cycles: 256159978 heartbeat IPC: 0.621971 cumulative IPC: 0.633625 (Simulation time: 41 hr 25 min 21 sec) 
 Total Blocks : 262144 Invalid Blocks : 0
Heartbeat CPU 3 instructions: 270000003 cycles: 256160375 heartbeat IPC: 0.621966 cumulative IPC: 0.633461 (Simulation time: 41 hr 25 min 37 sec) 
 Total Blocks : 262144 Invalid Blocks : 0
Heartbeat CPU 2 instructions: 270000003 cycles: 256161265 heartbeat IPC: 0.621949 cumulative IPC: 0.633512 (Simulation time: 41 hr 25 min 38 sec) 
 Total Blocks : 262144 Invalid Blocks : 0
Heartbeat CPU 1 instructions: 270000003 cycles: 256222914 heartbeat IPC: 0.620191 cumulative IPC: 0.633172 (Simulation time: 41 hr 25 min 50 sec) 
 Total Blocks : 262144 Invalid Blocks : 0
Heartbeat CPU 5 instructions: 270000003 cycles: 256272394 heartbeat IPC: 0.620101 cumulative IPC: 0.63298 (Simulation time: 41 hr 26 min 1 sec) 
 Total Blocks : 262144 Invalid Blocks : 0
Heartbeat CPU 7 instructions: 270000003 cycles: 256477501 heartbeat IPC: 0.620573 cumulative IPC: 0.631815 (Simulation time: 41 hr 27 min 2 sec) 
 Total Blocks : 262144 Invalid Blocks : 0
Heartbeat CPU 4 instructions: 270000003 cycles: 256480430 heartbeat IPC: 0.619479 cumulative IPC: 0.631708 (Simulation time: 41 hr 27 min 5 sec) 
 Total Blocks : 262144 Invalid Blocks : 0
Heartbeat CPU 6 instructions: 270000003 cycles: 257122847 heartbeat IPC: 0.616098 cumulative IPC: 0.628344 (Simulation time: 41 hr 30 min 8 sec) 
 Total Blocks : 262144 Invalid Blocks : 0
Heartbeat CPU 0 instructions: 280000003 cycles: 272230748 heartbeat IPC: 0.622248 cumulative IPC: 0.63218 (Simulation time: 42 hr 38 min 12 sec) 
 Total Blocks : 262144 Invalid Blocks : 0
Heartbeat CPU 2 instructions: 280000003 cycles: 272231070 heartbeat IPC: 0.622285 cumulative IPC: 0.632086 (Simulation time: 42 hr 38 min 14 sec) 
 Total Blocks : 262144 Invalid Blocks : 0
Heartbeat CPU 3 instructions: 280000003 cycles: 272233042 heartbeat IPC: 0.622174 cumulative IPC: 0.632028 (Simulation time: 42 hr 38 min 14 sec) 
 Total Blocks : 262144 Invalid Blocks : 0
Heartbeat CPU 1 instructions: 280000003 cycles: 272358042 heartbeat IPC: 0.619766 cumulative IPC: 0.631464 (Simulation time: 42 hr 38 min 40 sec) 
 Total Blocks : 262144 Invalid Blocks : 0
Heartbeat CPU 5 instructions: 280000003 cycles: 272385109 heartbeat IPC: 0.620628 cumulative IPC: 0.631409 (Simulation time: 42 hr 38 min 50 sec) 
 Total Blocks : 262144 Invalid Blocks : 0
Heartbeat CPU 7 instructions: 280000003 cycles: 272580219 heartbeat IPC: 0.621013 cumulative IPC: 0.630444 (Simulation time: 42 hr 39 min 48 sec) 
 Total Blocks : 262144 Invalid Blocks : 0
Heartbeat CPU 4 instructions: 280000003 cycles: 272584244 heartbeat IPC: 0.620971 cumulative IPC: 0.630345 (Simulation time: 42 hr 39 min 51 sec) 
 Total Blocks : 262144 Invalid Blocks : 0
Heartbeat CPU 6 instructions: 280000003 cycles: 273337517 heartbeat IPC: 0.616725 cumulative IPC: 0.626868 (Simulation time: 42 hr 43 min 23 sec) 
 Total Blocks : 262144 Invalid Blocks : 0
Heartbeat CPU 0 instructions: 290000000 cycles: 288477179 heartbeat IPC: 0.61552 cumulative IPC: 0.630284 (Simulation time: 43 hr 49 min 30 sec) 
 Total Blocks : 262144 Invalid Blocks : 0
Heartbeat CPU 2 instructions: 290000000 cycles: 288478806 heartbeat IPC: 0.61547 cumulative IPC: 0.630194 (Simulation time: 43 hr 49 min 31 sec) 
 Total Blocks : 262144 Invalid Blocks : 0
Heartbeat CPU 3 instructions: 290000000 cycles: 288490951 heartbeat IPC: 0.615085 cumulative IPC: 0.630098 (Simulation time: 43 hr 49 min 34 sec) 
 Total Blocks : 262144 Invalid Blocks : 0
Heartbeat CPU 1 instructions: 290000000 cycles: 288669561 heartbeat IPC: 0.613064 cumulative IPC: 0.629364 (Simulation time: 43 hr 50 min 24 sec) 
 Total Blocks : 262144 Invalid Blocks : 0
Heartbeat CPU 5 instructions: 290000000 cycles: 288680177 heartbeat IPC: 0.613682 cumulative IPC: 0.629388 (Simulation time: 43 hr 50 min 27 sec) 
 Total Blocks : 262144 Invalid Blocks : 0
Heartbeat CPU 7 instructions: 290000000 cycles: 288870302 heartbeat IPC: 0.61387 cumulative IPC: 0.628558 (Simulation time: 43 hr 51 min 2 sec) 
 Total Blocks : 262144 Invalid Blocks : 0
Heartbeat CPU 4 instructions: 290000000 cycles: 288878943 heartbeat IPC: 0.613696 cumulative IPC: 0.62845 (Simulation time: 43 hr 51 min 5 sec) 
 Total Blocks : 262144 Invalid Blocks : 0
Heartbeat CPU 6 instructions: 290000000 cycles: 289735821 heartbeat IPC: 0.609819 cumulative IPC: 0.624926 (Simulation time: 43 hr 54 min 49 sec) 
 Total Blocks : 262144 Invalid Blocks : 0
Heartbeat CPU 0 instructions: 300000001 cycles: 305608699 heartbeat IPC: 0.583719 cumulative IPC: 0.625295 (Simulation time: 45 hr 9 min 36 sec) 
 Total Blocks : 262144 Invalid Blocks : 0
Heartbeat CPU 2 instructions: 300000001 cycles: 305638753 heartbeat IPC: 0.582752 cumulative IPC: 0.625104 (Simulation time: 45 hr 9 min 44 sec) 
 Total Blocks : 262144 Invalid Blocks : 0
Heartbeat CPU 3 instructions: 300000001 cycles: 305645697 heartbeat IPC: 0.582929 cumulative IPC: 0.625039 (Simulation time: 45 hr 9 min 46 sec) 
 Total Blocks : 262144 Invalid Blocks : 0
Heartbeat CPU 5 instructions: 300000001 cycles: 305830672 heartbeat IPC: 0.583074 cumulative IPC: 0.624427 (Simulation time: 45 hr 10 min 37 sec) 
 Total Blocks : 262144 Invalid Blocks : 0
Heartbeat CPU 1 instructions: 300000001 cycles: 305850053 heartbeat IPC: 0.582056 cumulative IPC: 0.624288 (Simulation time: 45 hr 10 min 42 sec) 
 Total Blocks : 262144 Invalid Blocks : 0
Heartbeat CPU 4 instructions: 300000001 cycles: 306028557 heartbeat IPC: 0.583104 cumulative IPC: 0.623599 (Simulation time: 45 hr 11 min 39 sec) 
 Total Blocks : 262144 Invalid Blocks : 0
Heartbeat CPU 7 instructions: 300000001 cycles: 306079623 heartbeat IPC: 0.58108 cumulative IPC: 0.623463 (Simulation time: 45 hr 11 min 54 sec) 
 Total Blocks : 262144 Invalid Blocks : 0
Heartbeat CPU 6 instructions: 300000001 cycles: 306954176 heartbeat IPC: 0.580776 cumulative IPC: 0.620211 (Simulation time: 45 hr 16 min 22 sec) 
 Total Blocks : 262144 Invalid Blocks : 0
Heartbeat CPU 0 instructions: 310000001 cycles: 322094360 heartbeat IPC: 0.606588 cumulative IPC: 0.623546 (Simulation time: 46 hr 19 min 32 sec) 
 Total Blocks : 262144 Invalid Blocks : 0
Heartbeat CPU 3 instructions: 310000001 cycles: 322132781 heartbeat IPC: 0.606535 cumulative IPC: 0.623309 (Simulation time: 46 hr 19 min 40 sec) 
 Total Blocks : 262144 Invalid Blocks : 0
Heartbeat CPU 2 instructions: 310000001 cycles: 322148139 heartbeat IPC: 0.605716 cumulative IPC: 0.62329 (Simulation time: 46 hr 19 min 44 sec) 
 Total Blocks : 262144 Invalid Blocks : 0
Heartbeat CPU 5 instructions: 310000001 cycles: 322314221 heartbeat IPC: 0.606665 cumulative IPC: 0.622769 (Simulation time: 46 hr 20 min 16 sec) 
 Total Blocks : 262144 Invalid Blocks : 0
Heartbeat CPU 1 instructions: 310000001 cycles: 322338832 heartbeat IPC: 0.606473 cumulative IPC: 0.622625 (Simulation time: 46 hr 20 min 21 sec) 
 Total Blocks : 262144 Invalid Blocks : 0
Heartbeat CPU 4 instructions: 310000001 cycles: 322509511 heartbeat IPC: 0.606761 cumulative IPC: 0.622029 (Simulation time: 46 hr 20 min 54 sec) 
 Total Blocks : 262144 Invalid Blocks : 0
Heartbeat CPU 7 instructions: 310000001 cycles: 322589203 heartbeat IPC: 0.605709 cumulative IPC: 0.621806 (Simulation time: 46 hr 21 min 22 sec) 
 Total Blocks : 262144 Invalid Blocks : 0
Heartbeat CPU 6 instructions: 310000001 cycles: 323461586 heartbeat IPC: 0.605789 cumulative IPC: 0.618872 (Simulation time: 46 hr 24 min 37 sec) 
 Total Blocks : 262144 Invalid Blocks : 0
Heartbeat CPU 0 instructions: 320000002 cycles: 336787119 heartbeat IPC: 0.680607 cumulative IPC: 0.627934 (Simulation time: 47 hr 12 min 39 sec) 
 Total Blocks : 262144 Invalid Blocks : 0
Heartbeat CPU 3 instructions: 320000002 cycles: 336836312 heartbeat IPC: 0.680109 cumulative IPC: 0.627679 (Simulation time: 47 hr 12 min 48 sec) 
 Total Blocks : 262144 Invalid Blocks : 0
Heartbeat CPU 2 instructions: 320000002 cycles: 336859569 heartbeat IPC: 0.679744 cumulative IPC: 0.627635 (Simulation time: 47 hr 12 min 53 sec) 
 Total Blocks : 262144 Invalid Blocks : 0
Heartbeat CPU 5 instructions: 320000002 cycles: 337027891 heartbeat IPC: 0.67964 cumulative IPC: 0.627143 (Simulation time: 47 hr 13 min 23 sec) 
 Total Blocks : 262144 Invalid Blocks : 0
Heartbeat CPU 1 instructions: 320000002 cycles: 337054740 heartbeat IPC: 0.679537 cumulative IPC: 0.627002 (Simulation time: 47 hr 13 min 36 sec) 
 Total Blocks : 262144 Invalid Blocks : 0
Heartbeat CPU 4 instructions: 320000002 cycles: 337214378 heartbeat IPC: 0.680047 cumulative IPC: 0.626484 (Simulation time: 47 hr 14 min 14 sec) 
 Total Blocks : 262144 Invalid Blocks : 0
Heartbeat CPU 7 instructions: 320000002 cycles: 337324024 heartbeat IPC: 0.678665 cumulative IPC: 0.626178 (Simulation time: 47 hr 14 min 33 sec) 
 Total Blocks : 262144 Invalid Blocks : 0
Heartbeat CPU 6 instructions: 320000002 cycles: 338182173 heartbeat IPC: 0.679321 cumulative IPC: 0.623495 (Simulation time: 47 hr 17 min 32 sec) 
 Total Blocks : 262144 Invalid Blocks : 0
Heartbeat CPU 0 instructions: 330000000 cycles: 350921494 heartbeat IPC: 0.707495 cumulative IPC: 0.633414 (Simulation time: 48 hr 0 min 1 sec) 
 Total Blocks : 262144 Invalid Blocks : 0
Heartbeat CPU 3 instructions: 330000000 cycles: 350984578 heartbeat IPC: 0.7068 cumulative IPC: 0.633133 (Simulation time: 48 hr 0 min 31 sec) 
 Total Blocks : 262144 Invalid Blocks : 0
Heartbeat CPU 2 instructions: 330000000 cycles: 351014771 heartbeat IPC: 0.706454 cumulative IPC: 0.633069 (Simulation time: 48 hr 0 min 40 sec) 
 Total Blocks : 262144 Invalid Blocks : 0
Heartbeat CPU 5 instructions: 330000000 cycles: 351177478 heartbeat IPC: 0.706734 cumulative IPC: 0.632625 (Simulation time: 48 hr 1 min 17 sec) 
 Total Blocks : 262144 Invalid Blocks : 0
Heartbeat CPU 1 instructions: 330000000 cycles: 351204389 heartbeat IPC: 0.706731 cumulative IPC: 0.632492 (Simulation time: 48 hr 1 min 24 sec) 
 Total Blocks : 262144 Invalid Blocks : 0
Heartbeat CPU 4 instructions: 330000000 cycles: 351356730 heartbeat IPC: 0.707096 cumulative IPC: 0.632028 (Simulation time: 48 hr 2 min 8 sec) 
 Total Blocks : 262144 Invalid Blocks : 0
Heartbeat CPU 7 instructions: 330000000 cycles: 351522478 heartbeat IPC: 0.704302 cumulative IPC: 0.631568 (Simulation time: 48 hr 2 min 42 sec) 
 Total Blocks : 262144 Invalid Blocks : 0
Heartbeat CPU 6 instructions: 330000000 cycles: 352349338 heartbeat IPC: 0.705857 cumulative IPC: 0.629142 (Simulation time: 48 hr 5 min 51 sec) 
 Total Blocks : 262144 Invalid Blocks : 0
Heartbeat CPU 0 instructions: 340000000 cycles: 379564873 heartbeat IPC: 0.349121 cumulative IPC: 0.598592 (Simulation time: 49 hr 50 min 31 sec) 
 Total Blocks : 262144 Invalid Blocks : 0
Heartbeat CPU 3 instructions: 340000000 cycles: 379814911 heartbeat IPC: 0.346857 cumulative IPC: 0.597876 (Simulation time: 49 hr 51 min 32 sec) 
 Total Blocks : 262144 Invalid Blocks : 0
Heartbeat CPU 2 instructions: 340000000 cycles: 379879291 heartbeat IPC: 0.346446 cumulative IPC: 0.597738 (Simulation time: 49 hr 51 min 44 sec) 
 Total Blocks : 262144 Invalid Blocks : 0
Heartbeat CPU 5 instructions: 340000000 cycles: 380005611 heartbeat IPC: 0.346883 cumulative IPC: 0.597465 (Simulation time: 49 hr 52 min 6 sec) 
 Total Blocks : 262144 Invalid Blocks : 0
Heartbeat CPU 1 instructions: 340000000 cycles: 380031982 heartbeat IPC: 0.34689 cumulative IPC: 0.597355 (Simulation time: 49 hr 52 min 20 sec) 
 Total Blocks : 262144 Invalid Blocks : 0
Heartbeat CPU 4 instructions: 340000000 cycles: 380123908 heartbeat IPC: 0.347618 cumulative IPC: 0.597124 (Simulation time: 49 hr 52 min 47 sec) 
 Total Blocks : 262144 Invalid Blocks : 0
Heartbeat CPU 7 instructions: 340000000 cycles: 380218220 heartbeat IPC: 0.348484 cumulative IPC: 0.596927 (Simulation time: 49 hr 53 min 3 sec) 
 Total Blocks : 262144 Invalid Blocks : 0
Heartbeat CPU 6 instructions: 340000000 cycles: 380350879 heartbeat IPC: 0.357123 cumulative IPC: 0.596679 (Simulation time: 49 hr 53 min 24 sec) 
 Total Blocks : 262144 Invalid Blocks : 0
Heartbeat CPU 0 instructions: 350000000 cycles: 394371361 heartbeat IPC: 0.67538 cumulative IPC: 0.603164 (Simulation time: 50 hr 39 min 1 sec) 
 Total Blocks : 262144 Invalid Blocks : 0
Heartbeat CPU 3 instructions: 350000000 cycles: 394659900 heartbeat IPC: 0.673628 cumulative IPC: 0.602393 (Simulation time: 50 hr 40 min 10 sec) 
 Total Blocks : 262144 Invalid Blocks : 0
Heartbeat CPU 2 instructions: 350000000 cycles: 394706211 heartbeat IPC: 0.674449 cumulative IPC: 0.602306 (Simulation time: 50 hr 40 min 17 sec) 
 Total Blocks : 262144 Invalid Blocks : 0
Heartbeat CPU 5 instructions: 350000000 cycles: 394820201 heartbeat IPC: 0.67501 cumulative IPC: 0.602077 (Simulation time: 50 hr 40 min 35 sec) 
 Total Blocks : 262144 Invalid Blocks : 0
Heartbeat CPU 1 instructions: 350000000 cycles: 394851615 heartbeat IPC: 0.674781 cumulative IPC: 0.60196 (Simulation time: 50 hr 40 min 40 sec) 
 Total Blocks : 262144 Invalid Blocks : 0
Heartbeat CPU 4 instructions: 350000000 cycles: 394939927 heartbeat IPC: 0.674945 cumulative IPC: 0.601751 (Simulation time: 50 hr 40 min 54 sec) 
 Total Blocks : 262144 Invalid Blocks : 0
Heartbeat CPU 7 instructions: 350000000 cycles: 395108088 heartbeat IPC: 0.671598 cumulative IPC: 0.601385 (Simulation time: 50 hr 41 min 26 sec) 
 Total Blocks : 262144 Invalid Blocks : 0
Heartbeat CPU 6 instructions: 350000000 cycles: 395170980 heartbeat IPC: 0.674759 cumulative IPC: 0.601318 (Simulation time: 50 hr 41 min 51 sec) 
 Total Blocks : 262144 Invalid Blocks : 0
Heartbeat CPU 0 instructions: 360000000 cycles: 410740328 heartbeat IPC: 0.610912 cumulative IPC: 0.603643 (Simulation time: 51 hr 34 min 26 sec) 
 Total Blocks : 262144 Invalid Blocks : 0
Heartbeat CPU 3 instructions: 360000000 cycles: 411053700 heartbeat IPC: 0.609987 cumulative IPC: 0.602863 (Simulation time: 51 hr 35 min 39 sec) 
 Total Blocks : 262144 Invalid Blocks : 0
Heartbeat CPU 2 instructions: 360000000 cycles: 411110267 heartbeat IPC: 0.609605 cumulative IPC: 0.602757 (Simulation time: 51 hr 35 min 49 sec) 
 Total Blocks : 262144 Invalid Blocks : 0
Heartbeat CPU 5 instructions: 360000000 cycles: 411203885 heartbeat IPC: 0.610363 cumulative IPC: 0.602588 (Simulation time: 51 hr 36 min 4 sec) 
 Total Blocks : 262144 Invalid Blocks : 0
Heartbeat CPU 1 instructions: 360000000 cycles: 411243303 heartbeat IPC: 0.610065 cumulative IPC: 0.602461 (Simulation time: 51 hr 36 min 10 sec) 
 Total Blocks : 262144 Invalid Blocks : 0
Heartbeat CPU 4 instructions: 360000000 cycles: 411338054 heartbeat IPC: 0.609826 cumulative IPC: 0.602249 (Simulation time: 51 hr 36 min 27 sec) 
 Total Blocks : 262144 Invalid Blocks : 0
Heartbeat CPU 7 instructions: 360000000 cycles: 411578921 heartbeat IPC: 0.607134 cumulative IPC: 0.601741 (Simulation time: 51 hr 37 min 22 sec) 
 Total Blocks : 262144 Invalid Blocks : 0
Heartbeat CPU 6 instructions: 360000000 cycles: 411582520 heartbeat IPC: 0.609327 cumulative IPC: 0.601812 (Simulation time: 51 hr 37 min 24 sec) 
 Total Blocks : 262144 Invalid Blocks : 0
Heartbeat CPU 0 instructions: 370000000 cycles: 424229855 heartbeat IPC: 0.741316 cumulative IPC: 0.610311 (Simulation time: 52 hr 24 min 11 sec) 
 Total Blocks : 262144 Invalid Blocks : 0
Heartbeat CPU 3 instructions: 370000000 cycles: 424579899 heartbeat IPC: 0.739306 cumulative IPC: 0.609481 (Simulation time: 52 hr 25 min 45 sec) 
 Total Blocks : 262144 Invalid Blocks : 0
Heartbeat CPU 2 instructions: 370000000 cycles: 424637082 heartbeat IPC: 0.739272 cumulative IPC: 0.609378 (Simulation time: 52 hr 26 min 0 sec) 
 Total Blocks : 262144 Invalid Blocks : 0
Heartbeat CPU 5 instructions: 370000000 cycles: 424733863 heartbeat IPC: 0.7391 cumulative IPC: 0.609208 (Simulation time: 52 hr 26 min 22 sec) 
 Total Blocks : 262144 Invalid Blocks : 0
Heartbeat CPU 1 instructions: 370000000 cycles: 424768707 heartbeat IPC: 0.739349 cumulative IPC: 0.609096 (Simulation time: 52 hr 26 min 32 sec) 
 Total Blocks : 262144 Invalid Blocks : 0
Heartbeat CPU 4 instructions: 370000000 cycles: 424870954 heartbeat IPC: 0.73894 cumulative IPC: 0.608876 (Simulation time: 52 hr 26 min 53 sec) 
 Total Blocks : 262144 Invalid Blocks : 0
Heartbeat CPU 6 instructions: 370000000 cycles: 425099337 heartbeat IPC: 0.739819 cumulative IPC: 0.608489 (Simulation time: 52 hr 27 min 55 sec) 
 Total Blocks : 262144 Invalid Blocks : 0
Heartbeat CPU 7 instructions: 370000000 cycles: 425125456 heartbeat IPC: 0.738196 cumulative IPC: 0.608357 (Simulation time: 52 hr 28 min 1 sec) 
 Total Blocks : 262144 Invalid Blocks : 0
Heartbeat CPU 0 instructions: 380000001 cycles: 438300629 heartbeat IPC: 0.710693 cumulative IPC: 0.615138 (Simulation time: 53 hr 8 min 22 sec) 
 Total Blocks : 262144 Invalid Blocks : 0
Heartbeat CPU 3 instructions: 380000001 cycles: 438668024 heartbeat IPC: 0.709818 cumulative IPC: 0.614306 (Simulation time: 53 hr 9 min 30 sec) 
 Total Blocks : 262144 Invalid Blocks : 0
Heartbeat CPU 2 instructions: 380000001 cycles: 438730738 heartbeat IPC: 0.709539 cumulative IPC: 0.614195 (Simulation time: 53 hr 9 min 40 sec) 
 Total Blocks : 262144 Invalid Blocks : 0
Heartbeat CPU 5 instructions: 380000001 cycles: 438814026 heartbeat IPC: 0.710219 cumulative IPC: 0.614061 (Simulation time: 53 hr 9 min 54 sec) 
 Total Blocks : 262144 Invalid Blocks : 0
Heartbeat CPU 1 instructions: 380000001 cycles: 438850382 heartbeat IPC: 0.710143 cumulative IPC: 0.61395 (Simulation time: 53 hr 10 min 0 sec) 
 Total Blocks : 262144 Invalid Blocks : 0
Heartbeat CPU 4 instructions: 380000001 cycles: 438958022 heartbeat IPC: 0.709871 cumulative IPC: 0.613728 (Simulation time: 53 hr 10 min 16 sec) 
 Total Blocks : 262144 Invalid Blocks : 0
Heartbeat CPU 6 instructions: 380000001 cycles: 439199559 heartbeat IPC: 0.709209 cumulative IPC: 0.613328 (Simulation time: 53 hr 11 min 11 sec) 
 Total Blocks : 262144 Invalid Blocks : 0
Heartbeat CPU 7 instructions: 380000001 cycles: 439267181 heartbeat IPC: 0.707127 cumulative IPC: 0.613115 (Simulation time: 53 hr 11 min 20 sec) 
 Total Blocks : 262144 Invalid Blocks : 0
Heartbeat CPU 0 instructions: 390000000 cycles: 452333542 heartbeat IPC: 0.71261 cumulative IPC: 0.619599 (Simulation time: 53 hr 52 min 47 sec) 
 Total Blocks : 262144 Invalid Blocks : 0
Heartbeat CPU 3 instructions: 390000000 cycles: 452731798 heartbeat IPC: 0.711047 cumulative IPC: 0.618738 (Simulation time: 53 hr 53 min 59 sec) 
 Total Blocks : 262144 Invalid Blocks : 0
Heartbeat CPU 2 instructions: 390000000 cycles: 452781720 heartbeat IPC: 0.711694 cumulative IPC: 0.618657 (Simulation time: 53 hr 54 min 6 sec) 
 Total Blocks : 262144 Invalid Blocks : 0
Heartbeat CPU 5 instructions: 390000000 cycles: 452858809 heartbeat IPC: 0.712008 cumulative IPC: 0.618539 (Simulation time: 53 hr 54 min 18 sec) 
 Total Blocks : 262144 Invalid Blocks : 0
Heartbeat CPU 1 instructions: 390000000 cycles: 452890289 heartbeat IPC: 0.712255 cumulative IPC: 0.618443 (Simulation time: 53 hr 54 min 24 sec) 
 Total Blocks : 262144 Invalid Blocks : 0
Heartbeat CPU 4 instructions: 390000000 cycles: 453002817 heartbeat IPC: 0.712007 cumulative IPC: 0.61822 (Simulation time: 53 hr 54 min 41 sec) 
 Total Blocks : 262144 Invalid Blocks : 0
Heartbeat CPU 6 instructions: 390000000 cycles: 453267309 heartbeat IPC: 0.710846 cumulative IPC: 0.617789 (Simulation time: 53 hr 55 min 39 sec) 
 Total Blocks : 262144 Invalid Blocks : 0
Heartbeat CPU 7 instructions: 390000000 cycles: 453388874 heartbeat IPC: 0.70813 cumulative IPC: 0.617476 (Simulation time: 53 hr 55 min 59 sec) 
 Total Blocks : 262144 Invalid Blocks : 0
Heartbeat CPU 0 instructions: 400000001 cycles: 466256306 heartbeat IPC: 0.718248 cumulative IPC: 0.623884 (Simulation time: 54 hr 35 min 59 sec) 
 Total Blocks : 262144 Invalid Blocks : 0
Finished CPU 0 instructions: 200000001 cycles: 320571697 cumulative IPC: 0.623885 (Simulation time: 54 hr 36 min 5 sec) 
Heartbeat CPU 3 instructions: 400000001 cycles: 466672949 heartbeat IPC: 0.717301 cumulative IPC: 0.623019 (Simulation time: 54 hr 37 min 20 sec) 
 Total Blocks : 262144 Invalid Blocks : 0
Heartbeat CPU 2 instructions: 400000001 cycles: 466717702 heartbeat IPC: 0.717567 cumulative IPC: 0.622951 (Simulation time: 54 hr 37 min 29 sec) 
 Total Blocks : 262144 Invalid Blocks : 0
Finished CPU 3 instructions: 200000002 cycles: 321016115 cumulative IPC: 0.623022 (Simulation time: 54 hr 37 min 34 sec) 
Finished CPU 2 instructions: 200000001 cycles: 321051920 cumulative IPC: 0.622952 (Simulation time: 54 hr 37 min 40 sec) 
Heartbeat CPU 5 instructions: 400000001 cycles: 466785746 heartbeat IPC: 0.718033 cumulative IPC: 0.622855 (Simulation time: 54 hr 37 min 43 sec) 
 Total Blocks : 262144 Invalid Blocks : 0
Heartbeat CPU 1 instructions: 400000001 cycles: 466818914 heartbeat IPC: 0.717946 cumulative IPC: 0.622759 (Simulation time: 54 hr 37 min 51 sec) 
 Total Blocks : 262144 Invalid Blocks : 0
Finished CPU 5 instructions: 200000003 cycles: 321101500 cumulative IPC: 0.622856 (Simulation time: 54 hr 37 min 52 sec) 
Finished CPU 1 instructions: 200000000 cycles: 321150999 cumulative IPC: 0.62276 (Simulation time: 54 hr 37 min 57 sec) 
Heartbeat CPU 4 instructions: 400000001 cycles: 466927609 heartbeat IPC: 0.718144 cumulative IPC: 0.622551 (Simulation time: 54 hr 38 min 6 sec) 
 Total Blocks : 262144 Invalid Blocks : 0
Finished CPU 4 instructions: 200000001 cycles: 321258201 cumulative IPC: 0.622552 (Simulation time: 54 hr 38 min 14 sec) 
Heartbeat CPU 6 instructions: 400000001 cycles: 467226574 heartbeat IPC: 0.71637 cumulative IPC: 0.622069 (Simulation time: 54 hr 39 min 7 sec) 
 Total Blocks : 262144 Invalid Blocks : 0
Finished CPU 6 instructions: 200000001 cycles: 321507725 cumulative IPC: 0.622069 (Simulation time: 54 hr 39 min 8 sec) 
Heartbeat CPU 7 instructions: 400000001 cycles: 467397307 heartbeat IPC: 0.713856 cumulative IPC: 0.621674 (Simulation time: 54 hr 39 min 32 sec) 
 Total Blocks : 262144 Invalid Blocks : 0
Finished CPU 7 instructions: 200000000 cycles: 321711695 cumulative IPC: 0.621675 (Simulation time: 54 hr 39 min 37 sec) 

CPU 0 Branch Prediction Accuracy: 87.6614% MPKI: 14.8158 Average ROB Occupancy at Mispredict: 65.4288

CPU 1 Branch Prediction Accuracy: 87.6593% MPKI: 14.8141 Average ROB Occupancy at Mispredict: 65.4007

CPU 2 Branch Prediction Accuracy: 87.6606% MPKI: 14.8137 Average ROB Occupancy at Mispredict: 65.4583

CPU 3 Branch Prediction Accuracy: 87.6607% MPKI: 14.8133 Average ROB Occupancy at Mispredict: 65.4217

CPU 4 Branch Prediction Accuracy: 87.6582% MPKI: 14.8147 Average ROB Occupancy at Mispredict: 65.4419

CPU 5 Branch Prediction Accuracy: 87.6589% MPKI: 14.8153 Average ROB Occupancy at Mispredict: 65.428

CPU 6 Branch Prediction Accuracy: 87.6561% MPKI: 14.8169 Average ROB Occupancy at Mispredict: 65.4435

CPU 7 Branch Prediction Accuracy: 87.656% MPKI: 14.8147 Average ROB Occupancy at Mispredict: 65.3961

ChampSim completed all CPUs

Total Simulation Statistics (not including warmup)

CPU 0 cumulative IPC: 0.624211 instructions: 200815914 cycles: 321711694
ITLB TOTAL     ACCESS: 22430796  HIT: 22430792  MISS:     4  HIT %:   100  MISS %: 1.78326e-05  AVERAGE MISS PENALTY: 109
ITLB LOAD      ACCESS: 22430796  HIT: 22430792  MISS:     4  HIT %:   100  MISS %: 1.78326e-05  AVERAGE MISS PENALTY: 109
ITLB RFO       ACCESS:     0  HIT:     0  MISS:     0  HIT %:     0  MISS %:     0  AVERAGE MISS PENALTY: 0
ITLB PREFETCH  ACCESS:     0  HIT:     0  MISS:     0  HIT %:     0  MISS %:     0  AVERAGE MISS PENALTY: 0
ITLB WRITEBACK ACCESS:     0  HIT:     0  MISS:     0  HIT %:     0  MISS %:     0  AVERAGE MISS PENALTY: 0

DTLB TOTAL     ACCESS: 37383071  HIT: 36775521  MISS: 607550  HIT %: 98.3748  MISS %: 1.6252  AVERAGE MISS PENALTY: 19.1225
DTLB LOAD      ACCESS: 26315153  HIT: 25778245  MISS: 536908  HIT %: 97.9597  MISS %: 2.0403  AVERAGE MISS PENALTY: 19.8328
DTLB RFO       ACCESS: 11067918  HIT: 10997276  MISS: 70642  HIT %: 99.3617  MISS %: 0.638259  AVERAGE MISS PENALTY: 13.724
DTLB PREFETCH  ACCESS:     0  HIT:     0  MISS:     0  HIT %:     0  MISS %:     0  AVERAGE MISS PENALTY: 0
DTLB WRITEBACK ACCESS:     0  HIT:     0  MISS:     0  HIT %:     0  MISS %:     0  AVERAGE MISS PENALTY: 0

STLB TOTAL     ACCESS: 607554  HIT: 564871  MISS: 42683  HIT %: 92.9746  MISS %: 7.02538  AVERAGE MISS PENALTY: 100
STLB LOAD      ACCESS: 536912  HIT: 495915  MISS: 40997  HIT %: 92.3643  MISS %: 7.6357  AVERAGE MISS PENALTY: 100
STLB RFO       ACCESS: 70642  HIT: 68956  MISS:  1686  HIT %: 97.6133  MISS %: 2.38668  AVERAGE MISS PENALTY: 100
STLB PREFETCH  ACCESS:     0  HIT:     0  MISS:     0  HIT %:     0  MISS %:     0  AVERAGE MISS PENALTY: 0
STLB WRITEBACK ACCESS:     0  HIT:     0  MISS:     0  HIT %:     0  MISS %:     0  AVERAGE MISS PENALTY: 0

L1D TOTAL     ACCESS: 56819594  HIT: 54864592  MISS: 1955002  HIT %: 96.5593  MISS %: 3.44072  AVERAGE MISS PENALTY: 3.64617e+06
L1D LOAD      ACCESS: 28958541  HIT: 28218933  MISS: 739608  HIT %: 97.446  MISS %: 2.55402  AVERAGE MISS PENALTY: 9.45192e+06
L1D RFO       ACCESS: 17609101  HIT: 17455312  MISS: 153789  HIT %: 99.1267  MISS %: 0.87335  AVERAGE MISS PENALTY: 893966
L1D PREFETCH  ACCESS: 10251952  HIT: 9190347  MISS: 1061605  HIT %: 89.6449  MISS %: 10.3551  AVERAGE MISS PENALTY: 63.1908
L1D WRITEBACK ACCESS:     0  HIT:     0  MISS:     0  HIT %:     0  MISS %:     0  AVERAGE MISS PENALTY: 0

L1I TOTAL     ACCESS: 32494619  HIT: 32494207  MISS:   412  HIT %: 99.9987  MISS %: 0.0012679  AVERAGE MISS PENALTY: 134.296
L1I LOAD      ACCESS: 32494619  HIT: 32494207  MISS:   412  HIT %: 99.9987  MISS %: 0.0012679  AVERAGE MISS PENALTY: 134.296
L1I RFO       ACCESS:     0  HIT:     0  MISS:     0  HIT %:     0  MISS %:     0  AVERAGE MISS PENALTY: 0
L1I PREFETCH  ACCESS:     0  HIT:     0  MISS:     0  HIT %:     0  MISS %:     0  AVERAGE MISS PENALTY: 0
L1I WRITEBACK ACCESS:     0  HIT:     0  MISS:     0  HIT %:     0  MISS %:     0  AVERAGE MISS PENALTY: 0

L2C TOTAL     ACCESS: 3566468  HIT: 2646087  MISS: 920381  HIT %: 74.1935  MISS %: 25.8065  AVERAGE MISS PENALTY: 1.30255e+07
L2C LOAD      ACCESS: 738869  HIT: 472909  MISS: 265960  HIT %: 64.0044  MISS %: 35.9956  AVERAGE MISS PENALTY: 4.50745e+07
L2C RFO       ACCESS: 153250  HIT: 64359  MISS: 88891  HIT %: 41.9961  MISS %: 58.0039  AVERAGE MISS PENALTY: 3544.36
L2C PREFETCH  ACCESS: 1917855  HIT: 1354679  MISS: 563176  HIT %: 70.6351  MISS %: 29.3649  AVERAGE MISS PENALTY: 173.403
L2C WRITEBACK ACCESS: 756494  HIT: 754140  MISS:  2354  HIT %: 99.6888  MISS %: 0.311172  AVERAGE MISS PENALTY: 0


LLC0 TOTAL     ACCESS: 148884  HIT: 94944  MISS: 53940  HIT %: 63.7705  MISS %: 36.2295  AVERAGE MISS PENALTY: 572.586
LLC0 LOAD      ACCESS: 30476  HIT: 18025  MISS: 12451  HIT %: 59.1449  MISS %: 40.8551  AVERAGE MISS PENALTY: 562.524
LLC0 RFO       ACCESS: 11219  HIT:   785  MISS: 10434  HIT %: 6.99706  MISS %: 93.0029  AVERAGE MISS PENALTY: 989.151
LLC0 PREFETCH  ACCESS: 64799  HIT: 38307  MISS: 26492  HIT %: 59.1167  MISS %: 40.8833  AVERAGE MISS PENALTY: 511.871
LLC0 WRITEBACK ACCESS: 42390  HIT: 37827  MISS:  4563  HIT %: 89.2357  MISS %: 10.7643  AVERAGE MISS PENALTY: 0

LLC1 TOTAL     ACCESS: 156907  HIT: 101291  MISS: 55616  HIT %: 64.5548  MISS %: 35.4452  AVERAGE MISS PENALTY: 567.333
LLC1 LOAD      ACCESS: 29615  HIT: 19730  MISS:  9885  HIT %: 66.6216  MISS %: 33.3784  AVERAGE MISS PENALTY: 326.681
LLC1 RFO       ACCESS: 11182  HIT:   797  MISS: 10385  HIT %: 7.12753  MISS %: 92.8725  AVERAGE MISS PENALTY: 1020.47
LLC1 PREFETCH  ACCESS: 71872  HIT: 41047  MISS: 30825  HIT %: 57.1113  MISS %: 42.8887  AVERAGE MISS PENALTY: 575.052
LLC1 WRITEBACK ACCESS: 44238  HIT: 39717  MISS:  4521  HIT %: 89.7803  MISS %: 10.2197  AVERAGE MISS PENALTY: 0

LLC2 TOTAL     ACCESS: 163024  HIT: 106558  MISS: 56466  HIT %: 65.3634  MISS %: 34.6366  AVERAGE MISS PENALTY: 588.045
LLC2 LOAD      ACCESS: 31502  HIT: 19539  MISS: 11963  HIT %: 62.0246  MISS %: 37.9754  AVERAGE MISS PENALTY: 581.807
LLC2 RFO       ACCESS: 11257  HIT:   909  MISS: 10348  HIT %: 8.07498  MISS %: 91.925  AVERAGE MISS PENALTY: 1077.99
LLC2 PREFETCH  ACCESS: 75102  HIT: 45299  MISS: 29803  HIT %: 60.3166  MISS %: 39.6834  AVERAGE MISS PENALTY: 506.303
LLC2 WRITEBACK ACCESS: 45163  HIT: 40811  MISS:  4352  HIT %: 90.3638  MISS %: 9.63621  AVERAGE MISS PENALTY: 0

LLC3 TOTAL     ACCESS: 169169  HIT: 112848  MISS: 56321  HIT %: 66.7073  MISS %: 33.2927  AVERAGE MISS PENALTY: 584.006
LLC3 LOAD      ACCESS: 31224  HIT: 21519  MISS:  9705  HIT %: 68.9181  MISS %: 31.0819  AVERAGE MISS PENALTY: 342.547
LLC3 RFO       ACCESS: 11398  HIT:  1013  MISS: 10385  HIT %: 8.88752  MISS %: 91.1125  AVERAGE MISS PENALTY: 1079.48
LLC3 PREFETCH  ACCESS: 79094  HIT: 47310  MISS: 31784  HIT %: 59.8149  MISS %: 40.1851  AVERAGE MISS PENALTY: 577.555
LLC3 WRITEBACK ACCESS: 47453  HIT: 43006  MISS:  4447  HIT %: 90.6286  MISS %: 9.37138  AVERAGE MISS PENALTY: 0

LLC4 TOTAL     ACCESS: 161030  HIT: 106126  MISS: 54904  HIT %: 65.9045  MISS %: 34.0955  AVERAGE MISS PENALTY: 574.852
LLC4 LOAD      ACCESS: 29713  HIT: 18371  MISS: 11342  HIT %: 61.8282  MISS %: 38.1718  AVERAGE MISS PENALTY: 562.781
LLC4 RFO       ACCESS: 11096  HIT:   774  MISS: 10322  HIT %: 6.97549  MISS %: 93.0245  AVERAGE MISS PENALTY: 1012.14
LLC4 PREFETCH  ACCESS: 76837  HIT: 47843  MISS: 28994  HIT %: 62.2656  MISS %: 37.7344  AVERAGE MISS PENALTY: 508.08
LLC4 WRITEBACK ACCESS: 43384  HIT: 39138  MISS:  4246  HIT %: 90.213  MISS %: 9.78702  AVERAGE MISS PENALTY: 0

LLC5 TOTAL     ACCESS: 158964  HIT: 104187  MISS: 54777  HIT %: 65.5413  MISS %: 34.4587  AVERAGE MISS PENALTY: 590.04
LLC5 LOAD      ACCESS: 27839  HIT: 18498  MISS:  9341  HIT %: 66.4464  MISS %: 33.5536  AVERAGE MISS PENALTY: 325.097
LLC5 RFO       ACCESS: 10902  HIT:   597  MISS: 10305  HIT %: 5.47606  MISS %: 94.5239  AVERAGE MISS PENALTY: 1050.01
LLC5 PREFETCH  ACCESS: 76506  HIT: 45626  MISS: 30880  HIT %: 59.6372  MISS %: 40.3628  AVERAGE MISS PENALTY: 597.911
LLC5 WRITEBACK ACCESS: 43717  HIT: 39466  MISS:  4251  HIT %: 90.2761  MISS %: 9.72391  AVERAGE MISS PENALTY: 0

LLC6 TOTAL     ACCESS: 157335  HIT: 102389  MISS: 54946  HIT %: 65.0771  MISS %: 34.9229  AVERAGE MISS PENALTY: 590.874
LLC6 LOAD      ACCESS: 30413  HIT: 18914  MISS: 11499  HIT %: 62.1905  MISS %: 37.8095  AVERAGE MISS PENALTY: 611.026
LLC6 RFO       ACCESS: 10947  HIT:   624  MISS: 10323  HIT %: 5.70019  MISS %: 94.2998  AVERAGE MISS PENALTY: 1063.46
LLC6 PREFETCH  ACCESS: 72247  HIT: 43376  MISS: 28871  HIT %: 60.0385  MISS %: 39.9615  AVERAGE MISS PENALTY: 500.912
LLC6 WRITEBACK ACCESS: 43728  HIT: 39475  MISS:  4253  HIT %: 90.274  MISS %: 9.72603  AVERAGE MISS PENALTY: 0

LLC7 TOTAL     ACCESS: 155318  HIT: 99390  MISS: 55928  HIT %: 63.9913  MISS %: 36.0087  AVERAGE MISS PENALTY: 574.363
LLC7 LOAD      ACCESS: 27440  HIT: 17329  MISS: 10111  HIT %: 63.1523  MISS %: 36.8477  AVERAGE MISS PENALTY: 403.453
LLC7 RFO       ACCESS: 10889  HIT:   577  MISS: 10312  HIT %: 5.29893  MISS %: 94.7011  AVERAGE MISS PENALTY: 1059.66
LLC7 PREFETCH  ACCESS: 74455  HIT: 43306  MISS: 31149  HIT %: 58.164  MISS %: 41.836  AVERAGE MISS PENALTY: 549.503
LLC7 WRITEBACK ACCESS: 42534  HIT: 38178  MISS:  4356  HIT %: 89.7588  MISS %: 10.2412  AVERAGE MISS PENALTY: 0

Total Rob stall cycles : 	235994824
Total Load Rob Stall cycles : 	83068504
Average Rob Stall cycles : 	 6
Average Load Rob Stall cycles : 	 12

CPU 1 cumulative IPC: 0.622932 instructions: 200404572 cycles: 321711694
ITLB TOTAL     ACCESS: 22385038  HIT: 22385034  MISS:     4  HIT %:   100  MISS %: 1.78691e-05  AVERAGE MISS PENALTY: 109
ITLB LOAD      ACCESS: 22385038  HIT: 22385034  MISS:     4  HIT %:   100  MISS %: 1.78691e-05  AVERAGE MISS PENALTY: 109
ITLB RFO       ACCESS:     0  HIT:     0  MISS:     0  HIT %:     0  MISS %:     0  AVERAGE MISS PENALTY: 0
ITLB PREFETCH  ACCESS:     0  HIT:     0  MISS:     0  HIT %:     0  MISS %:     0  AVERAGE MISS PENALTY: 0
ITLB WRITEBACK ACCESS:     0  HIT:     0  MISS:     0  HIT %:     0  MISS %:     0  AVERAGE MISS PENALTY: 0

DTLB TOTAL     ACCESS: 37314131  HIT: 36707825  MISS: 606306  HIT %: 98.3751  MISS %: 1.62487  AVERAGE MISS PENALTY: 19.1477
DTLB LOAD      ACCESS: 26262507  HIT: 25726615  MISS: 535892  HIT %: 97.9595  MISS %: 2.04052  AVERAGE MISS PENALTY: 19.8586
DTLB RFO       ACCESS: 11051624  HIT: 10981210  MISS: 70414  HIT %: 99.3629  MISS %: 0.637137  AVERAGE MISS PENALTY: 13.7378
DTLB PREFETCH  ACCESS:     0  HIT:     0  MISS:     0  HIT %:     0  MISS %:     0  AVERAGE MISS PENALTY: 0
DTLB WRITEBACK ACCESS:     0  HIT:     0  MISS:     0  HIT %:     0  MISS %:     0  AVERAGE MISS PENALTY: 0

STLB TOTAL     ACCESS: 606310  HIT: 563632  MISS: 42678  HIT %: 92.961  MISS %: 7.03897  AVERAGE MISS PENALTY: 100
STLB LOAD      ACCESS: 535896  HIT: 494903  MISS: 40993  HIT %: 92.3506  MISS %: 7.64943  AVERAGE MISS PENALTY: 100
STLB RFO       ACCESS: 70414  HIT: 68729  MISS:  1685  HIT %: 97.607  MISS %: 2.39299  AVERAGE MISS PENALTY: 100
STLB PREFETCH  ACCESS:     0  HIT:     0  MISS:     0  HIT %:     0  MISS %:     0  AVERAGE MISS PENALTY: 0
STLB WRITEBACK ACCESS:     0  HIT:     0  MISS:     0  HIT %:     0  MISS %:     0  AVERAGE MISS PENALTY: 0

L1D TOTAL     ACCESS: 56718777  HIT: 54767417  MISS: 1951360  HIT %: 96.5596  MISS %: 3.44041  AVERAGE MISS PENALTY: 3.6255e+06
L1D LOAD      ACCESS: 28905057  HIT: 28166716  MISS: 738341  HIT %: 97.4456  MISS %: 2.55437  AVERAGE MISS PENALTY: 9.39736e+06
L1D RFO       ACCESS: 17581694  HIT: 17428248  MISS: 153446  HIT %: 99.1272  MISS %: 0.87276  AVERAGE MISS PENALTY: 887216
L1D PREFETCH  ACCESS: 10232026  HIT: 9172453  MISS: 1059573  HIT %: 89.6445  MISS %: 10.3555  AVERAGE MISS PENALTY: 63.9452
L1D WRITEBACK ACCESS:     0  HIT:     0  MISS:     0  HIT %:     0  MISS %:     0  AVERAGE MISS PENALTY: 0

L1I TOTAL     ACCESS: 32430384  HIT: 32429968  MISS:   416  HIT %: 99.9987  MISS %: 0.00128275  AVERAGE MISS PENALTY: 137.784
L1I LOAD      ACCESS: 32430384  HIT: 32429968  MISS:   416  HIT %: 99.9987  MISS %: 0.00128275  AVERAGE MISS PENALTY: 137.784
L1I RFO       ACCESS:     0  HIT:     0  MISS:     0  HIT %:     0  MISS %:     0  AVERAGE MISS PENALTY: 0
L1I PREFETCH  ACCESS:     0  HIT:     0  MISS:     0  HIT %:     0  MISS %:     0  AVERAGE MISS PENALTY: 0
L1I WRITEBACK ACCESS:     0  HIT:     0  MISS:     0  HIT %:     0  MISS %:     0  AVERAGE MISS PENALTY: 0

L2C TOTAL     ACCESS: 3560117  HIT: 2570648  MISS: 989469  HIT %: 72.2068  MISS %: 27.7932  AVERAGE MISS PENALTY: 1.2101e+07
L2C LOAD      ACCESS: 737662  HIT: 449174  MISS: 288488  HIT %: 60.8916  MISS %: 39.1084  AVERAGE MISS PENALTY: 4.1503e+07
L2C RFO       ACCESS: 152911  HIT: 61263  MISS: 91648  HIT %: 40.0645  MISS %: 59.9355  AVERAGE MISS PENALTY: 4230.07
L2C PREFETCH  ACCESS: 1914491  HIT: 1308142  MISS: 606349  HIT %: 68.3284  MISS %: 31.6716  AVERAGE MISS PENALTY: 163.776
L2C WRITEBACK ACCESS: 755053  HIT: 752069  MISS:  2984  HIT %: 99.6048  MISS %: 0.395204  AVERAGE MISS PENALTY: 0


LLC0 TOTAL     ACCESS: 157992  HIT: 104164  MISS: 53828  HIT %: 65.9299  MISS %: 34.0701  AVERAGE MISS PENALTY: 582.116
LLC0 LOAD      ACCESS: 33142  HIT: 20517  MISS: 12625  HIT %: 61.9063  MISS %: 38.0937  AVERAGE MISS PENALTY: 559.95
LLC0 RFO       ACCESS: 11478  HIT:  1076  MISS: 10402  HIT %: 9.37446  MISS %: 90.6255  AVERAGE MISS PENALTY: 1029.83
LLC0 PREFETCH  ACCESS: 68289  HIT: 41738  MISS: 26551  HIT %: 61.1197  MISS %: 38.8803  AVERAGE MISS PENALTY: 510.431
LLC0 WRITEBACK ACCESS: 45083  HIT: 40833  MISS:  4250  HIT %: 90.5729  MISS %: 9.42706  AVERAGE MISS PENALTY: 0

LLC1 TOTAL     ACCESS: 171721  HIT: 115999  MISS: 55722  HIT %: 67.5509  MISS %: 32.4491  AVERAGE MISS PENALTY: 572.044
LLC1 LOAD      ACCESS: 33855  HIT: 23956  MISS:  9899  HIT %: 70.7606  MISS %: 29.2394  AVERAGE MISS PENALTY: 301.406
LLC1 RFO       ACCESS: 11848  HIT:  1458  MISS: 10390  HIT %: 12.3059  MISS %: 87.6941  AVERAGE MISS PENALTY: 1068.22
LLC1 PREFETCH  ACCESS: 76700  HIT: 45493  MISS: 31207  HIT %: 59.3129  MISS %: 40.6871  AVERAGE MISS PENALTY: 570.161
LLC1 WRITEBACK ACCESS: 49318  HIT: 45092  MISS:  4226  HIT %: 91.4311  MISS %: 8.56888  AVERAGE MISS PENALTY: 0

LLC2 TOTAL     ACCESS: 180671  HIT: 123966  MISS: 56705  HIT %: 68.6142  MISS %: 31.3858  AVERAGE MISS PENALTY: 594.175
LLC2 LOAD      ACCESS: 35075  HIT: 23051  MISS: 12024  HIT %: 65.7192  MISS %: 34.2808  AVERAGE MISS PENALTY: 579.873
LLC2 RFO       ACCESS: 12084  HIT:  1693  MISS: 10391  HIT %: 14.0103  MISS %: 85.9897  AVERAGE MISS PENALTY: 1118.76
LLC2 PREFETCH  ACCESS: 83807  HIT: 53650  MISS: 30157  HIT %: 64.0161  MISS %: 35.9839  AVERAGE MISS PENALTY: 500.556
LLC2 WRITEBACK ACCESS: 49705  HIT: 45572  MISS:  4133  HIT %: 91.6849  MISS %: 8.31506  AVERAGE MISS PENALTY: 0

LLC3 TOTAL     ACCESS: 185097  HIT: 128693  MISS: 56404  HIT %: 69.5273  MISS %: 30.4727  AVERAGE MISS PENALTY: 595.243
LLC3 LOAD      ACCESS: 35037  HIT: 25063  MISS:  9974  HIT %: 71.533  MISS %: 28.467  AVERAGE MISS PENALTY: 325.189
[...]
 TIMELY PREFETCHES:      19555 LATE PREFETCHES: 0 DROPPED PREFETCHES: 0
LLC1 AVERAGE MISS LATENCY: 562.712 cycles
LLC2 TOTAL     ACCESS: 196936  HIT: 140523  MISS: 56413  HIT %: 71.3547  MISS %: 28.6453  AVERAGE MISS PENALTY: 576.341
LLC2 LOAD      ACCESS: 39542  HIT: 27571  MISS: 11971  HIT %: 69.7259  MISS %: 30.2741  AVERAGE MISS PENALTY: 532.439
LLC2 RFO       ACCESS: 11354  HIT:   978  MISS: 10376  HIT %: 8.6137  MISS %: 91.3863  AVERAGE MISS PENALTY: 1148.79
LLC2 PREFETCH  ACCESS: 94130  HIT: 64030  MISS: 30100  HIT %: 68.0229  MISS %: 31.9771  AVERAGE MISS PENALTY: 472.408
LLC2 WRITEBACK ACCESS: 51910  HIT: 47944  MISS:  3966  HIT %: 92.3599  MISS %: 7.64015  AVERAGE MISS PENALTY: 0
LLC2 PREFETCH  REQUESTED:     0  ISSUED:     0  USEFUL: 19778  USELESS: 218222
 USEFUL LOAD PREFETCHES:      19778 PREFETCH ISSUED TO LOWER LEVEL:   11241269  ACCURACY: 0.175941
 TIMELY PREFETCHES:      19778 LATE PREFETCHES: 0 DROPPED PREFETCHES: 0
LLC2 AVERAGE MISS LATENCY: 576.341 cycles
LLC3 TOTAL     ACCESS: 200926  HIT: 144978  MISS: 55948  HIT %: 72.1549  MISS %: 27.8451  AVERAGE MISS PENALTY: 581.215
LLC3 LOAD      ACCESS: 38737  HIT: 28999  MISS:  9738  HIT %: 74.8612  MISS %: 25.1388  AVERAGE MISS PENALTY: 274.647
LLC3 RFO       ACCESS: 11560  HIT:  1203  MISS: 10357  HIT %: 10.4066  MISS %: 89.5934  AVERAGE MISS PENALTY: 1168.43
LLC3 PREFETCH  ACCESS: 97042  HIT: 65177  MISS: 31865  HIT %: 67.1637  MISS %: 32.8363  AVERAGE MISS PENALTY: 556.783
LLC3 WRITEBACK ACCESS: 53587  HIT: 49599  MISS:  3988  HIT %: 92.5579  MISS %: 7.4421  AVERAGE MISS PENALTY: 0
LLC3 PREFETCH  REQUESTED:     0  ISSUED:     0  USEFUL: 20999  USELESS: 230798
 USEFUL LOAD PREFETCHES:      20999 PREFETCH ISSUED TO LOWER LEVEL:   20308759  ACCURACY: 0.103399
 TIMELY PREFETCHES:      20999 LATE PREFETCHES: 0 DROPPED PREFETCHES: 0
LLC3 AVERAGE MISS LATENCY: 581.215 cycles
LLC4 TOTAL     ACCESS: 194290  HIT: 139716  MISS: 54574  HIT %: 71.9111  MISS %: 28.0889  AVERAGE MISS PENALTY: 571.358
LLC4 LOAD      ACCESS: 38163  HIT: 26863  MISS: 11300  HIT %: 70.3902  MISS %: 29.6098  AVERAGE MISS PENALTY: 516.281
LLC4 RFO       ACCESS: 11147  HIT:   837  MISS: 10310  HIT %: 7.50875  MISS %: 92.4913  AVERAGE MISS PENALTY: 1100.5
LLC4 PREFETCH  ACCESS: 94879  HIT: 65755  MISS: 29124  HIT %: 69.3041  MISS %: 30.6959  AVERAGE MISS PENALTY: 480.743
LLC4 WRITEBACK ACCESS: 50101  HIT: 46261  MISS:  3840  HIT %: 92.3355  MISS %: 7.66452  AVERAGE MISS PENALTY: 0
LLC4 PREFETCH  REQUESTED:     0  ISSUED:     0  USEFUL: 20161  USELESS: 211375
 USEFUL LOAD PREFETCHES:      20161 PREFETCH ISSUED TO LOWER LEVEL:   12948586  ACCURACY: 0.1557
 TIMELY PREFETCHES:      20161 LATE PREFETCHES: 0 DROPPED PREFETCHES: 0
LLC4 AVERAGE MISS LATENCY: 571.358 cycles
LLC5 TOTAL     ACCESS: 193179  HIT: 138518  MISS: 54661  HIT %: 71.7045  MISS %: 28.2955  AVERAGE MISS PENALTY: 587.061
LLC5 LOAD      ACCESS: 36195  HIT: 26753  MISS:  9442  HIT %: 73.9135  MISS %: 26.0865  AVERAGE MISS PENALTY: 266.792
LLC5 RFO       ACCESS: 10935  HIT:   636  MISS: 10299  HIT %: 5.81619  MISS %: 94.1838  AVERAGE MISS PENALTY: 1145.06
LLC5 PREFETCH  ACCESS: 95582  HIT: 64462  MISS: 31120  HIT %: 67.4416  MISS %: 32.5584  AVERAGE MISS PENALTY: 571.25
LLC5 WRITEBACK ACCESS: 50467  HIT: 46667  MISS:  3800  HIT %: 92.4703  MISS %: 7.52967  AVERAGE MISS PENALTY: 0
LLC5 PREFETCH  REQUESTED:     0  ISSUED:     0  USEFUL: 20271  USELESS: 224945
 USEFUL LOAD PREFETCHES:      20271 PREFETCH ISSUED TO LOWER LEVEL:   24817929  ACCURACY: 0.0816789
 TIMELY PREFETCHES:      20271 LATE PREFETCHES: 0 DROPPED PREFETCHES: 0
LLC5 AVERAGE MISS LATENCY: 587.061 cycles
LLC6 TOTAL     ACCESS: 190143  HIT: 135441  MISS: 54702  HIT %: 71.2311  MISS %: 28.7689  AVERAGE MISS PENALTY: 584.919
LLC6 LOAD      ACCESS: 38393  HIT: 26888  MISS: 11505  HIT %: 70.0336  MISS %: 29.9664  AVERAGE MISS PENALTY: 554.744
LLC6 RFO       ACCESS: 10975  HIT:   651  MISS: 10324  HIT %: 5.93166  MISS %: 94.0683  AVERAGE MISS PENALTY: 1145.75
LLC6 PREFETCH  ACCESS: 91202  HIT: 62027  MISS: 29175  HIT %: 68.0106  MISS %: 31.9894  AVERAGE MISS PENALTY: 472.5
LLC6 WRITEBACK ACCESS: 49573  HIT: 45875  MISS:  3698  HIT %: 92.5403  MISS %: 7.45971  AVERAGE MISS PENALTY: 0
LLC6 PREFETCH  REQUESTED:     0  ISSUED:     0  USEFUL: 18745  USELESS: 211869
 USEFUL LOAD PREFETCHES:      18745 PREFETCH ISSUED TO LOWER LEVEL:   16462690  ACCURACY: 0.113864
 TIMELY PREFETCHES:      18745 LATE PREFETCHES: 0 DROPPED PREFETCHES: 0
LLC6 AVERAGE MISS LATENCY: 584.919 cycles
LLC7 TOTAL     ACCESS: 186695  HIT: 131059  MISS: 55636  HIT %: 70.1995  MISS %: 29.8005  AVERAGE MISS PENALTY: 581.233
LLC7 LOAD      ACCESS: 35514  HIT: 25406  MISS: 10108  HIT %: 71.538  MISS %: 28.462  AVERAGE MISS PENALTY: 334.787
LLC7 RFO       ACCESS: 10938  HIT:   615  MISS: 10323  HIT %: 5.6226  MISS %: 94.3774  AVERAGE MISS PENALTY: 1175.73
LLC7 PREFETCH  ACCESS: 92121  HIT: 60980  MISS: 31141  HIT %: 66.1955  MISS %: 33.8045  AVERAGE MISS PENALTY: 540.008
LLC7 WRITEBACK ACCESS: 48122  HIT: 44058  MISS:  4064  HIT %: 91.5548  MISS %: 8.4452  AVERAGE MISS PENALTY: 0
LLC7 PREFETCH  REQUESTED:     0  ISSUED:     0  USEFUL: 19397  USELESS: 228212
 USEFUL LOAD PREFETCHES:      19397 PREFETCH ISSUED TO LOWER LEVEL:   33997468  ACCURACY: 0.0570542
 TIMELY PREFETCHES:      19397 LATE PREFETCHES: 0 DROPPED PREFETCHES: 0
LLC7 AVERAGE MISS LATENCY: 581.233 cycles
ROI Average ROB Stall Cycles:	6.39694
ROI Total ROB Stalls Cycles:	236185301
ROI TOTAL ROB counter      :	36921612
ROI Average Load ROB Stall Cycles:	12.2472
ROI Total Load ROB Stalls Cycle  :	83880989
ROI Total Load ROB stalls Counter:	6848987
Major fault: 0 Minor fault: 9188

CPU 7 cumulative IPC: 0.621675 instructions: 200000000 cycles: 321711695
ITLB TOTAL     ACCESS: 22339762  HIT: 22339758  MISS:     4  HIT %:   100  MISS %: 1.79053e-05  AVERAGE MISS PENALTY: 109
ITLB LOAD      ACCESS: 22339762  HIT: 22339758  MISS:     4  HIT %:   100  MISS %: 1.79053e-05  AVERAGE MISS PENALTY: 109
ITLB RFO       ACCESS:     0  HIT:     0  MISS:     0  HIT %:     0  MISS %:     0  AVERAGE MISS PENALTY: 0
ITLB PREFETCH  ACCESS:     0  HIT:     0  MISS:     0  HIT %:     0  MISS %:     0  AVERAGE MISS PENALTY: 0
ITLB WRITEBACK ACCESS:     0  HIT:     0  MISS:     0  HIT %:     0  MISS %:     0  AVERAGE MISS PENALTY: 0
ITLB PREFETCH  REQUESTED:     0  ISSUED:     0  USEFUL:     0  USELESS:     0
 USEFUL LOAD PREFETCHES:          0 PREFETCH ISSUED TO LOWER LEVEL:          0  ACCURACY: -nan
 TIMELY PREFETCHES:          0 LATE PREFETCHES: 0 DROPPED PREFETCHES: 0
ITLB AVERAGE MISS LATENCY: 109 cycles
DTLB TOTAL     ACCESS: 37243077  HIT: 36638147  MISS: 604930  HIT %: 98.3757  MISS %: 1.62428  AVERAGE MISS PENALTY: 19.1655
DTLB LOAD      ACCESS: 26210271  HIT: 25675497  MISS: 534774  HIT %: 97.9597  MISS %: 2.04032  AVERAGE MISS PENALTY: 19.8754
DTLB RFO       ACCESS: 11032806  HIT: 10962650  MISS: 70156  HIT %: 99.3641  MISS %: 0.635885  AVERAGE MISS PENALTY: 13.7538
DTLB PREFETCH  ACCESS:     0  HIT:     0  MISS:     0  HIT %:     0  MISS %:     0  AVERAGE MISS PENALTY: 0
DTLB WRITEBACK ACCESS:     0  HIT:     0  MISS:     0  HIT %:     0  MISS %:     0  AVERAGE MISS PENALTY: 0
DTLB PREFETCH  REQUESTED:     0  ISSUED:     0  USEFUL:     0  USELESS:     0
 USEFUL LOAD PREFETCHES:          0 PREFETCH ISSUED TO LOWER LEVEL:          0  ACCURACY: -nan
 TIMELY PREFETCHES:          0 LATE PREFETCHES: 0 DROPPED PREFETCHES: 0
DTLB AVERAGE MISS LATENCY: 19.1655 cycles
STLB TOTAL     ACCESS: 604934  HIT: 562253  MISS: 42681  HIT %: 92.9445  MISS %: 7.05548  AVERAGE MISS PENALTY: 100
STLB LOAD      ACCESS: 534778  HIT: 493781  MISS: 40997  HIT %: 92.3338  MISS %: 7.66617  AVERAGE MISS PENALTY: 100
STLB RFO       ACCESS: 70156  HIT: 68472  MISS:  1684  HIT %: 97.5996  MISS %: 2.40036  AVERAGE MISS PENALTY: 100
STLB PREFETCH  ACCESS:     0  HIT:     0  MISS:     0  HIT %:     0  MISS %:     0  AVERAGE MISS PENALTY: 0
STLB WRITEBACK ACCESS:     0  HIT:     0  MISS:     0  HIT %:     0  MISS %:     0  AVERAGE MISS PENALTY: 0
STLB PREFETCH  REQUESTED:     0  ISSUED:     0  USEFUL:     0  USELESS:     0
 USEFUL LOAD PREFETCHES:          0 PREFETCH ISSUED TO LOWER LEVEL:          0  ACCURACY: -nan
 TIMELY PREFETCHES:          0 LATE PREFETCHES: 0 DROPPED PREFETCHES: 0
STLB AVERAGE MISS LATENCY: 100 cycles
L1D TOTAL     ACCESS: 56615296  HIT: 54667509  MISS: 1947787  HIT %: 96.5596  MISS %: 3.44039  AVERAGE MISS PENALTY: 3.6517e+06
L1D LOAD      ACCESS: 28857537  HIT: 28120232  MISS: 737305  HIT %: 97.445  MISS %: 2.55498  AVERAGE MISS PENALTY: 9.44011e+06
L1D RFO       ACCESS: 17550822  HIT: 17397688  MISS: 153134  HIT %: 99.1275  MISS %: 0.872518  AVERAGE MISS PENALTY: 995416
L1D PREFETCH  ACCESS: 10206937  HIT: 9149589  MISS: 1057348  HIT %: 89.6409  MISS %: 10.3591  AVERAGE MISS PENALTY: 65.2524
L1D WRITEBACK ACCESS:     0  HIT:     0  MISS:     0  HIT %:     0  MISS %:     0  AVERAGE MISS PENALTY: 0
L1D PREFETCH  REQUESTED: 11058941  ISSUED: 10686037  USEFUL: 194956  USELESS: 862413
 USEFUL LOAD PREFETCHES:     194956 PREFETCH ISSUED TO LOWER LEVEL:   14387016  ACCURACY: 1.35508
 TIMELY PREFETCHES:     194956 LATE PREFETCHES: 86050 DROPPED PREFETCHES: 372904
L1D AVERAGE MISS LATENCY: 78345.1 cycles
L1I TOTAL     ACCESS: 32366356  HIT: 32365938  MISS:   418  HIT %: 99.9987  MISS %: 0.00129146  AVERAGE MISS PENALTY: 144.694
L1I LOAD      ACCESS: 32366356  HIT: 32365938  MISS:   418  HIT %: 99.9987  MISS %: 0.00129146  AVERAGE MISS PENALTY: 144.694
L1I RFO       ACCESS:     0  HIT:     0  MISS:     0  HIT %:     0  MISS %:     0  AVERAGE MISS PENALTY: 0
L1I PREFETCH  ACCESS:     0  HIT:     0  MISS:     0  HIT %:     0  MISS %:     0  AVERAGE MISS PENALTY: 0
L1I WRITEBACK ACCESS:     0  HIT:     0  MISS:     0  HIT %:     0  MISS %:     0  AVERAGE MISS PENALTY: 0
L1I PREFETCH  REQUESTED:     0  ISSUED:     0  USEFUL:     0  USELESS:     0
 USEFUL LOAD PREFETCHES:          0 PREFETCH ISSUED TO LOWER LEVEL:          0  ACCURACY: -nan
 TIMELY PREFETCHES:          0 LATE PREFETCHES: 0 DROPPED PREFETCHES: 0
L1I AVERAGE MISS LATENCY: 144.694 cycles
L2C TOTAL     ACCESS: 3551554  HIT: 2400649  MISS: 1150905  HIT %: 67.5943  MISS %: 32.4057  AVERAGE MISS PENALTY: 1.05576e+07
L2C LOAD      ACCESS: 736654  HIT: 405514  MISS: 331140  HIT %: 55.0481  MISS %: 44.9519  AVERAGE MISS PENALTY: 3.66893e+07
L2C RFO       ACCESS: 152547  HIT: 51523  MISS: 101024  HIT %: 33.7752  MISS %: 66.2248  AVERAGE MISS PENALTY: 14270.5
L2C PREFETCH  ACCESS: 1908825  HIT: 1199631  MISS: 709194  HIT %: 62.8466  MISS %: 37.1534  AVERAGE MISS PENALTY: 144.288
L2C WRITEBACK ACCESS: 753528  HIT: 743981  MISS:  9547  HIT %: 98.733  MISS %: 1.26697  AVERAGE MISS PENALTY: 0
L2C PREFETCH  REQUESTED: 1411057  ISSUED: 1395407  USEFUL: 58828  USELESS: 650414
 USEFUL LOAD PREFETCHES:      58828 PREFETCH ISSUED TO LOWER LEVEL:     803526  ACCURACY: 7.32123
 TIMELY PREFETCHES:      58828 LATE PREFETCHES: 56869 DROPPED PREFETCHES: 15650
L2C AVERAGE MISS LATENCY: 248.906 cycles
LLC0 TOTAL     ACCESS: 183395  HIT: 129929  MISS: 53466  HIT %: 70.8465  MISS %: 29.1535  AVERAGE MISS PENALTY: 593.067
LLC0 LOAD      ACCESS: 38624  HIT: 26126  MISS: 12498  HIT %: 67.6419  MISS %: 32.3581  AVERAGE MISS PENALTY: 565.898
LLC0 RFO       ACCESS: 12539  HIT:  2102  MISS: 10437  HIT %: 16.7637  MISS %: 83.2363  AVERAGE MISS PENALTY: 1060.15
LLC0 PREFETCH  ACCESS: 78462  HIT: 52073  MISS: 26389  HIT %: 66.3672  MISS %: 33.6328  AVERAGE MISS PENALTY: 514.289
LLC0 WRITEBACK ACCESS: 53770  HIT: 49628  MISS:  4142  HIT %: 92.2968  MISS %: 7.70318  AVERAGE MISS PENALTY: 0
LLC0 PREFETCH  REQUESTED:     0  ISSUED:     0  USEFUL: 16823  USELESS: 193457
 USEFUL LOAD PREFETCHES:      16823 PREFETCH ISSUED TO LOWER LEVEL:    9669705  ACCURACY: 0.173976
 TIMELY PREFETCHES:      16823 LATE PREFETCHES: 0 DROPPED PREFETCHES: 0
LLC0 AVERAGE MISS LATENCY: 593.067 cycles
Deadblocks : 85494 Deadblock percentage : 684.061

LLC1 TOTAL     ACCESS: 205848  HIT: 150593  MISS: 55255  HIT %: 73.1574  MISS %: 26.8426  AVERAGE MISS PENALTY: 578.433
LLC1 LOAD      ACCESS: 40794  HIT: 30820  MISS:  9974  HIT %: 75.5503  MISS %: 24.4497  AVERAGE MISS PENALTY: 289.338
LLC1 RFO       ACCESS: 14180  HIT:  3779  MISS: 10401  HIT %: 26.6502  MISS %: 73.3498  AVERAGE MISS PENALTY: 1074.16
LLC1 PREFETCH  ACCESS: 89812  HIT: 58976  MISS: 30836  HIT %: 65.6661  MISS %: 34.3339  AVERAGE MISS PENALTY: 580.591
LLC1 WRITEBACK ACCESS: 61062  HIT: 57018  MISS:  4044  HIT %: 93.3772  MISS %: 6.62278  AVERAGE MISS PENALTY: 0
LLC1 PREFETCH  REQUESTED:     0  ISSUED:     0  USEFUL: 19555  USELESS: 226351
 USEFUL LOAD PREFETCHES:      19555 PREFETCH ISSUED TO LOWER LEVEL:   17784969  ACCURACY: 0.109952
 TIMELY PREFETCHES:      19555 LATE PREFETCHES: 0 DROPPED PREFETCHES: 0
LLC1 AVERAGE MISS LATENCY: 578.433 cycles
LLC2 TOTAL     ACCESS: 214295  HIT: 158018  MISS: 56277  HIT %: 73.7385  MISS %: 26.2615  AVERAGE MISS PENALTY: 590.986
LLC2 LOAD      ACCESS: 41008  HIT: 28987  MISS: 12021  HIT %: 70.6862  MISS %: 29.3138  AVERAGE MISS PENALTY: 565.481
LLC2 RFO       ACCESS: 13720  HIT:  3321  MISS: 10399  HIT %: 24.2055  MISS %: 75.7945  AVERAGE MISS PENALTY: 1119.89
LLC2 PREFETCH  ACCESS: 99113  HIT: 69266  MISS: 29847  HIT %: 69.8859  MISS %: 30.1141  AVERAGE MISS PENALTY: 496.381
LLC2 WRITEBACK ACCESS: 60454  HIT: 56444  MISS:  4010  HIT %: 93.3669  MISS %: 6.63314  AVERAGE MISS PENALTY: 0
LLC2 PREFETCH  REQUESTED:     0  ISSUED:     0  USEFUL: 19778  USELESS: 218222
 USEFUL LOAD PREFETCHES:      19778 PREFETCH ISSUED TO LOWER LEVEL:   11241269  ACCURACY: 0.175941
 TIMELY PREFETCHES:      19778 LATE PREFETCHES: 0 DROPPED PREFETCHES: 0
LLC2 AVERAGE MISS LATENCY: 590.986 cycles
LLC3 TOTAL     ACCESS: 218988  HIT: 163380  MISS: 55608  HIT %: 74.6068  MISS %: 25.3932  AVERAGE MISS PENALTY: 599.666
LLC3 LOAD      ACCESS: 40339  HIT: 30581  MISS:  9758  HIT %: 75.81  MISS %: 24.19  AVERAGE MISS PENALTY: 307.726
LLC3 RFO       ACCESS: 14119  HIT:  3723  MISS: 10396  HIT %: 26.3687  MISS %: 73.6313  AVERAGE MISS PENALTY: 1141.15
LLC3 PREFETCH  ACCESS: 102159  HIT: 70669  MISS: 31490  HIT %: 69.1755  MISS %: 30.8245  AVERAGE MISS PENALTY: 586.854
LLC3 WRITEBACK ACCESS: 62371  HIT: 58407  MISS:  3964  HIT %: 93.6445  MISS %: 6.35552  AVERAGE MISS PENALTY: 0
LLC3 PREFETCH  REQUESTED:     0  ISSUED:     0  USEFUL: 20999  USELESS: 230798
 USEFUL LOAD PREFETCHES:      20999 PREFETCH ISSUED TO LOWER LEVEL:   20308759  ACCURACY: 0.103399
 TIMELY PREFETCHES:      20999 LATE PREFETCHES: 0 DROPPED PREFETCHES: 0
LLC3 AVERAGE MISS LATENCY: 599.666 cycles
LLC4 TOTAL     ACCESS: 200470  HIT: 145859  MISS: 54611  HIT %: 72.7585  MISS %: 27.2415  AVERAGE MISS PENALTY: 588.057
LLC4 LOAD      ACCESS: 37467  HIT: 26183  MISS: 11284  HIT %: 69.8828  MISS %: 30.1172  AVERAGE MISS PENALTY: 556.953
LLC4 RFO       ACCESS: 11736  HIT:  1370  MISS: 10366  HIT %: 11.6735  MISS %: 88.3265  AVERAGE MISS PENALTY: 1066.41
LLC4 PREFETCH  ACCESS: 97432  HIT: 68347  MISS: 29085  HIT %: 70.1484  MISS %: 29.8516  AVERAGE MISS PENALTY: 508.006
LLC4 WRITEBACK ACCESS: 53835  HIT: 49959  MISS:  3876  HIT %: 92.8002  MISS %: 7.19978  AVERAGE MISS PENALTY: 0
LLC4 PREFETCH  REQUESTED:     0  ISSUED:     0  USEFUL: 20161  USELESS: 211375
 USEFUL LOAD PREFETCHES:      20161 PREFETCH ISSUED TO LOWER LEVEL:   12948586  ACCURACY: 0.1557
 TIMELY PREFETCHES:      20161 LATE PREFETCHES: 0 DROPPED PREFETCHES: 0
LLC4 AVERAGE MISS LATENCY: 588.057 cycles
LLC5 TOTAL     ACCESS: 193298  HIT: 138847  MISS: 54451  HIT %: 71.8305  MISS %: 28.1695  AVERAGE MISS PENALTY: 608.443
LLC5 LOAD      ACCESS: 34155  HIT: 24782  MISS:  9373  HIT %: 72.5575  MISS %: 27.4425  AVERAGE MISS PENALTY: 299.484
LLC5 RFO       ACCESS: 11560  HIT:  1223  MISS: 10337  HIT %: 10.5796  MISS %: 89.4204  AVERAGE MISS PENALTY: 1135.3
LLC5 PREFETCH  ACCESS: 94518  HIT: 63630  MISS: 30888  HIT %: 67.3205  MISS %: 32.6795  AVERAGE MISS PENALTY: 601.779
LLC5 WRITEBACK ACCESS: 53065  HIT: 49212  MISS:  3853  HIT %: 92.7391  MISS %: 7.26091  AVERAGE MISS PENALTY: 0
LLC5 PREFETCH  REQUESTED:     0  ISSUED:     0  USEFUL: 20271  USELESS: 224945
 USEFUL LOAD PREFETCHES:      20271 PREFETCH ISSUED TO LOWER LEVEL:   24817929  ACCURACY: 0.0816789
 TIMELY PREFETCHES:      20271 LATE PREFETCHES: 0 DROPPED PREFETCHES: 0
LLC5 AVERAGE MISS LATENCY: 608.443 cycles
LLC6 TOTAL     ACCESS: 189520  HIT: 134774  MISS: 54746  HIT %: 71.1133  MISS %: 28.8867  AVERAGE MISS PENALTY: 605.174
LLC6 LOAD      ACCESS: 37532  HIT: 25939  MISS: 11593  HIT %: 69.1117  MISS %: 30.8883  AVERAGE MISS PENALTY: 604.462
LLC6 RFO       ACCESS: 11710  HIT:  1368  MISS: 10342  HIT %: 11.6823  MISS %: 88.3177  AVERAGE MISS PENALTY: 1129.74
LLC6 PREFETCH  ACCESS: 86907  HIT: 57977  MISS: 28930  HIT %: 66.7115  MISS %: 33.2885  AVERAGE MISS PENALTY: 499.12
LLC6 WRITEBACK ACCESS: 53371  HIT: 49490  MISS:  3881  HIT %: 92.7283  MISS %: 7.27174  AVERAGE MISS PENALTY: 0
LLC6 PREFETCH  REQUESTED:     0  ISSUED:     0  USEFUL: 18745  USELESS: 211869
 USEFUL LOAD PREFETCHES:      18745 PREFETCH ISSUED TO LOWER LEVEL:   16462690  ACCURACY: 0.113864
 TIMELY PREFETCHES:      18745 LATE PREFETCHES: 0 DROPPED PREFETCHES: 0
LLC6 AVERAGE MISS LATENCY: 605.174 cycles
LLC7 TOTAL     ACCESS: 183793  HIT: 128451  MISS: 55342  HIT %: 69.889  MISS %: 30.111  AVERAGE MISS PENALTY: 595.141
LLC7 LOAD      ACCESS: 33163  HIT: 23208  MISS:  9955  HIT %: 69.9816  MISS %: 30.0184  AVERAGE MISS PENALTY: 354.532
LLC7 RFO       ACCESS: 11416  HIT:  1073  MISS: 10343  HIT %: 9.39909  MISS %: 90.6009  AVERAGE MISS PENALTY: 1143.85
LLC7 PREFETCH  ACCESS: 88854  HIT: 57951  MISS: 30903  HIT %: 65.2205  MISS %: 34.7795  AVERAGE MISS PENALTY: 568.75
LLC7 WRITEBACK ACCESS: 50360  HIT: 46219  MISS:  4141  HIT %: 91.7772  MISS %: 8.2228  AVERAGE MISS PENALTY: 0
LLC7 PREFETCH  REQUESTED:     0  ISSUED:     0  USEFUL: 19397  USELESS: 228212
 USEFUL LOAD PREFETCHES:      19397 PREFETCH ISSUED TO LOWER LEVEL:   33997468  ACCURACY: 0.0570542
 TIMELY PREFETCHES:      19397 LATE PREFETCHES: 0 DROPPED PREFETCHES: 0
LLC7 AVERAGE MISS LATENCY: 595.141 cycles
ROI Average ROB Stall Cycles:	6.39806
ROI Total ROB Stalls Cycles:	236370256
ROI TOTAL ROB counter      :	36944070
ROI Average Load ROB Stall Cycles:	12.2675
ROI Total Load ROB Stalls Cycle  :	84065239
ROI Total Load ROB stalls Counter:	6852706
Major fault: 0 Minor fault: 9188








Interconnect Stats 
LINK 0 BW : 0LINK 1 BW : 0LINK 2 BW : 0LINK 3 BW : 0LINK 4 BW : 0LINK 5 BW : 0LINK 6 BW : 0LINK 7 BW : 0
DRAM Statistics
 CHANNEL 0
 RQ ROW_BUFFER_HIT: 380947  ROW_BUFFER_MISS: 1247152
 DBUS_CONGESTED: 1626310
 WQ ROW_BUFFER_HIT: 93236  ROW_BUFFER_MISS: 609587  FULL:     0

 CHANNEL 1
 RQ ROW_BUFFER_HIT: 379224  ROW_BUFFER_MISS: 1263846
 DBUS_CONGESTED: 1626310
 WQ ROW_BUFFER_HIT: 94721  ROW_BUFFER_MISS: 616972  FULL:     0

 AVG_CONGESTED_CYCLE: 6
DRAM PAGES: 2097152
Allocated PAGES: 73504
L2C destructor called
L1D destructor called
L1I destructor called
STLB destructor called
DTLB destructor called
ITLB destructor called
L2C destructor called
L1D destructor called
L1I destructor called
STLB destructor called
DTLB destructor called
ITLB destructor called
L2C destructor called
L1D destructor called
L1I destructor called
STLB destructor called
DTLB destructor called
ITLB destructor called
L2C destructor called
L1D destructor called
L1I destructor called
STLB destructor called
DTLB destructor called
ITLB destructor called
L2C destructor called
L1D destructor called
L1I destructor called
STLB destructor called
DTLB destructor called
ITLB destructor called
L2C destructor called
L1D destructor called
L1I destructor called
STLB destructor called
DTLB destructor called
ITLB destructor called
L2C destructor called
L1D destructor called
L1I destructor called
STLB destructor called
DTLB destructor called
ITLB destructor called
L2C destructor called
L1D destructor called
L1I destructor called
STLB destructor called
DTLB destructor called
ITLB destructor called
