
*** ChampSim Multicore Out-of-Order Simulator ***

Warmup Instructions: 200000000
Simulation Instructions: 200000000
Number of CPUs: 1
threads:1

L1I Configuration:
L1I_SET:64
L1I_WAY:8
L1I_RQ_SIZE:64
L1I_WQ_SIZE:64
L1I_PQ_SIZE:8
L1I_MSHR_SIZE:8

L1D Configuration:
L1D_SET:64
L1D_WAY:12
L1D_RQ_SIZE:64
L1D_WQ_SIZE:64
L1D_PQ_SIZE:8
L1D_MSHR_SIZE:16

L2C Configuration:
L2C_SET:1024
L2C_WAY:8
L2C_RQ_SIZE:32
L2C_WQ_SIZE:32
L2C_PQ_SIZE:16
L2C_MSHR_SIZE:32

LLC Configuration:
LLC_SET:2048
LLC_WAY:12
LLC SLICES:8
LLC_RQ_SIZE:64
LLC_WQ_SIZE:64
LLC_PQ_SIZE:32
LLC_MSHR_SIZE:64

Interconnect OFF
Attacker deprioritize is: OFF
Off-chip DRAM Size: 4096 MB Channels: 1 Width: 64-bit Data Rate: 3200 MT/s
PAGE SIZE in KB: 4.000000 
PAGE SIZE in MB: 0.003906 
PAGE offset in bits: 12 
CEASER-S_LLC:0
MIRAGE : 1
CEASER_LATENCY:3
REMAP : OFF
Partitions : 1
Multi-Step : OFF
BFS : OFF

CPU 0 runs /home/anubhav/gap/pr-5.trace.gz
CPU 0 Bimodal branch predictor
Initialize Hawkeye state
Initialize Hawkeye state
Initialize Hawkeye state
Initialize Hawkeye state
Initialize Hawkeye state
Initialize Hawkeye state
Initialize Hawkeye state
Initialize Hawkeye state
Heartbeat CPU 0 instructions: 10000001 cycles: 3863805 heartbeat IPC: 2.58812 cumulative IPC: 2.58812 (Simulation time: 0 hr 27 min 58 sec) 
 Total Blocks : 196608 Invalid Blocks : 148781 Valid Blocks : 47827
 Total Tags : 491520 Threshold : 12288 Invalid Tags : 345394 Pr0 Tags : 98299 Pr1 Tags : 47827 num_pr0 : 12287
 SAE Count : 0
 Inter-Core Inteference in Data Store : 0
Heartbeat CPU 0 instructions: 20000000 cycles: 12742064 heartbeat IPC: 1.12635 cumulative IPC: 1.5696 (Simulation time: 0 hr 36 min 4 sec) 
 Total Blocks : 196608 Invalid Blocks : 127310 Valid Blocks : 69298
 Total Tags : 491520 Threshold : 12288 Invalid Tags : 323918 Pr0 Tags : 98304 Pr1 Tags : 69298 num_pr0 : 12288
 SAE Count : 0
 Inter-Core Inteference in Data Store : 0
Heartbeat CPU 0 instructions: 30000000 cycles: 22580107 heartbeat IPC: 1.01646 cumulative IPC: 1.3286 (Simulation time: 0 hr 39 min 50 sec) 
 Total Blocks : 196608 Invalid Blocks : 122924 Valid Blocks : 73684
 Total Tags : 491520 Threshold : 12288 Invalid Tags : 319532 Pr0 Tags : 98304 Pr1 Tags : 73684 num_pr0 : 12288
 SAE Count : 0
 Inter-Core Inteference in Data Store : 0
Heartbeat CPU 0 instructions: 40000001 cycles: 32991736 heartbeat IPC: 0.960465 cumulative IPC: 1.21242 (Simulation time: 0 hr 45 min 8 sec) 
 Total Blocks : 196608 Invalid Blocks : 119375 Valid Blocks : 77233
 Total Tags : 491520 Threshold : 12288 Invalid Tags : 315984 Pr0 Tags : 98303 Pr1 Tags : 77233 num_pr0 : 12288
 SAE Count : 0
 Inter-Core Inteference in Data Store : 0
Heartbeat CPU 0 instructions: 50000002 cycles: 43420623 heartbeat IPC: 0.958875 cumulative IPC: 1.15153 (Simulation time: 0 hr 50 min 27 sec) 
 Total Blocks : 196608 Invalid Blocks : 115925 Valid Blocks : 80683
 Total Tags : 491520 Threshold : 12288 Invalid Tags : 312533 Pr0 Tags : 98304 Pr1 Tags : 80683 num_pr0 : 12288
 SAE Count : 0
 Inter-Core Inteference in Data Store : 0
Heartbeat CPU 0 instructions: 60000000 cycles: 53641049 heartbeat IPC: 0.978433 cumulative IPC: 1.11855 (Simulation time: 0 hr 55 min 23 sec) 
 Total Blocks : 196608 Invalid Blocks : 112685 Valid Blocks : 83923
 Total Tags : 491520 Threshold : 12288 Invalid Tags : 309293 Pr0 Tags : 98304 Pr1 Tags : 83923 num_pr0 : 12288
 SAE Count : 0
 Inter-Core Inteference in Data Store : 0
Heartbeat CPU 0 instructions: 70000001 cycles: 64124099 heartbeat IPC: 0.953921 cumulative IPC: 1.09163 (Simulation time: 1 hr 0 min 28 sec) 
 Total Blocks : 196608 Invalid Blocks : 109392 Valid Blocks : 87216
 Total Tags : 491520 Threshold : 12288 Invalid Tags : 306000 Pr0 Tags : 98304 Pr1 Tags : 87216 num_pr0 : 12288
 SAE Count : 0
 Inter-Core Inteference in Data Store : 0
Heartbeat CPU 0 instructions: 80000000 cycles: 74529782 heartbeat IPC: 0.961013 cumulative IPC: 1.0734 (Simulation time: 1 hr 5 min 33 sec) 
 Total Blocks : 196608 Invalid Blocks : 106239 Valid Blocks : 90369
 Total Tags : 491520 Threshold : 12288 Invalid Tags : 302847 Pr0 Tags : 98304 Pr1 Tags : 90369 num_pr0 : 12288
 SAE Count : 0
 Inter-Core Inteference in Data Store : 0
Heartbeat CPU 0 instructions: 90000000 cycles: 84851241 heartbeat IPC: 0.968855 cumulative IPC: 1.06068 (Simulation time: 1 hr 10 min 52 sec) 
 Total Blocks : 196608 Invalid Blocks : 103397 Valid Blocks : 93211
 Total Tags : 491520 Threshold : 12288 Invalid Tags : 300005 Pr0 Tags : 98304 Pr1 Tags : 93211 num_pr0 : 12288
 SAE Count : 0
 Inter-Core Inteference in Data Store : 0
Heartbeat CPU 0 instructions: 100000000 cycles: 95242252 heartbeat IPC: 0.96237 cumulative IPC: 1.04995 (Simulation time: 1 hr 15 min 59 sec) 
 Total Blocks : 196608 Invalid Blocks : 100435 Valid Blocks : 96173
 Total Tags : 491520 Threshold : 12288 Invalid Tags : 297043 Pr0 Tags : 98304 Pr1 Tags : 96173 num_pr0 : 12288
 SAE Count : 0
 Inter-Core Inteference in Data Store : 0
Heartbeat CPU 0 instructions: 110000000 cycles: 105641468 heartbeat IPC: 0.961611 cumulative IPC: 1.04126 (Simulation time: 1 hr 21 min 26 sec) 
 Total Blocks : 196608 Invalid Blocks : 97719 Valid Blocks : 98889
 Total Tags : 491520 Threshold : 12288 Invalid Tags : 294327 Pr0 Tags : 98304 Pr1 Tags : 98889 num_pr0 : 12288
 SAE Count : 0
 Inter-Core Inteference in Data Store : 0
Heartbeat CPU 0 instructions: 120000001 cycles: 116066912 heartbeat IPC: 0.959192 cumulative IPC: 1.03389 (Simulation time: 1 hr 26 min 53 sec) 
 Total Blocks : 196608 Invalid Blocks : 94884 Valid Blocks : 101724
 Total Tags : 491520 Threshold : 12288 Invalid Tags : 291492 Pr0 Tags : 98304 Pr1 Tags : 101724 num_pr0 : 12288
 SAE Count : 0
 Inter-Core Inteference in Data Store : 0
Heartbeat CPU 0 instructions: 130000002 cycles: 126415993 heartbeat IPC: 0.966269 cumulative IPC: 1.02835 (Simulation time: 1 hr 32 min 26 sec) 
 Total Blocks : 196608 Invalid Blocks : 92369 Valid Blocks : 104239
 Total Tags : 491520 Threshold : 12288 Invalid Tags : 288989 Pr0 Tags : 98292 Pr1 Tags : 104239 num_pr0 : 12287
 SAE Count : 0
 Inter-Core Inteference in Data Store : 0
Heartbeat CPU 0 instructions: 140000000 cycles: 136806267 heartbeat IPC: 0.962438 cumulative IPC: 1.02334 (Simulation time: 1 hr 37 min 55 sec) 
 Total Blocks : 196608 Invalid Blocks : 89854 Valid Blocks : 106754
 Total Tags : 491520 Threshold : 12288 Invalid Tags : 286462 Pr0 Tags : 98304 Pr1 Tags : 106754 num_pr0 : 12288
 SAE Count : 0
 Inter-Core Inteference in Data Store : 0
Heartbeat CPU 0 instructions: 150000000 cycles: 147217393 heartbeat IPC: 0.960511 cumulative IPC: 1.0189 (Simulation time: 1 hr 43 min 21 sec) 
 Total Blocks : 196608 Invalid Blocks : 87256 Valid Blocks : 109352
 Total Tags : 491520 Threshold : 12288 Invalid Tags : 283864 Pr0 Tags : 98304 Pr1 Tags : 109352 num_pr0 : 12288
 SAE Count : 0
 Inter-Core Inteference in Data Store : 0
Heartbeat CPU 0 instructions: 160000000 cycles: 157572867 heartbeat IPC: 0.965673 cumulative IPC: 1.0154 (Simulation time: 1 hr 48 min 43 sec) 
 Total Blocks : 196608 Invalid Blocks : 84817 Valid Blocks : 111791
 Total Tags : 491520 Threshold : 12288 Invalid Tags : 281425 Pr0 Tags : 98304 Pr1 Tags : 111791 num_pr0 : 12288
 SAE Count : 0
 Inter-Core Inteference in Data Store : 0
Heartbeat CPU 0 instructions: 170000000 cycles: 167968586 heartbeat IPC: 0.961934 cumulative IPC: 1.01209 (Simulation time: 1 hr 53 min 56 sec) 
 Total Blocks : 196608 Invalid Blocks : 82513 Valid Blocks : 114095
 Total Tags : 491520 Threshold : 12288 Invalid Tags : 279121 Pr0 Tags : 98304 Pr1 Tags : 114095 num_pr0 : 12288
 SAE Count : 0
 Inter-Core Inteference in Data Store : 0
Heartbeat CPU 0 instructions: 180000000 cycles: 178427178 heartbeat IPC: 0.956152 cumulative IPC: 1.00881 (Simulation time: 1 hr 59 min 26 sec) 
 Total Blocks : 196608 Invalid Blocks : 80122 Valid Blocks : 116486
 Total Tags : 491520 Threshold : 12288 Invalid Tags : 276730 Pr0 Tags : 98304 Pr1 Tags : 116486 num_pr0 : 12288
 SAE Count : 0
 Inter-Core Inteference in Data Store : 0
Heartbeat CPU 0 instructions: 190000003 cycles: 186891335 heartbeat IPC: 1.18145 cumulative IPC: 1.01663 (Simulation time: 2 hr 10 min 52 sec) 
 Total Blocks : 196608 Invalid Blocks : 78237 Valid Blocks : 118371
 Total Tags : 491520 Threshold : 12288 Invalid Tags : 274845 Pr0 Tags : 98304 Pr1 Tags : 118371 num_pr0 : 12288
 SAE Count : 0
 Inter-Core Inteference in Data Store : 0
Heartbeat CPU 0 instructions: 200000002 cycles: 191676448 heartbeat IPC: 2.08981 cumulative IPC: 1.04342 (Simulation time: 2 hr 37 min 57 sec) 
 Total Blocks : 196608 Invalid Blocks : 76658 Valid Blocks : 119950
 Total Tags : 491520 Threshold : 12288 Invalid Tags : 273266 Pr0 Tags : 98304 Pr1 Tags : 119950 num_pr0 : 12288
 SAE Count : 0
 Inter-Core Inteference in Data Store : 0

Warmup complete CPU 0 instructions: 200000002 cycles: 191676448 (Simulation time: 2 hr 37 min 57 sec) 

Heartbeat CPU 0 instructions: 210000000 cycles: 317722753 heartbeat IPC: 0.0793359 cumulative IPC: 0.0793359 (Simulation time: 2 hr 58 min 46 sec) 
 Total Blocks : 196608 Invalid Blocks : 75287 Valid Blocks : 121321
 Total Tags : 491520 Threshold : 12288 Invalid Tags : 271895 Pr0 Tags : 98304 Pr1 Tags : 121321 num_pr0 : 12288
 SAE Count : 0
 Inter-Core Inteference in Data Store : 0
Heartbeat CPU 0 instructions: 220000000 cycles: 440346966 heartbeat IPC: 0.08155 cumulative IPC: 0.0804277 (Simulation time: 3 hr 18 min 47 sec) 
 Total Blocks : 196608 Invalid Blocks : 74278 Valid Blocks : 122330
 Total Tags : 491520 Threshold : 12288 Invalid Tags : 270886 Pr0 Tags : 98304 Pr1 Tags : 122330 num_pr0 : 12288
 SAE Count : 0
 Inter-Core Inteference in Data Store : 0
Heartbeat CPU 0 instructions: 230000000 cycles: 564111518 heartbeat IPC: 0.0807986 cumulative IPC: 0.0805509 (Simulation time: 3 hr 37 min 38 sec) 
 Total Blocks : 196608 Invalid Blocks : 73448 Valid Blocks : 123160
 Total Tags : 491520 Threshold : 12288 Invalid Tags : 270056 Pr0 Tags : 98304 Pr1 Tags : 123160 num_pr0 : 12288
 SAE Count : 0
 Inter-Core Inteference in Data Store : 0
Heartbeat CPU 0 instructions: 240000000 cycles: 688276569 heartbeat IPC: 0.080538 cumulative IPC: 0.0805477 (Simulation time: 3 hr 57 min 6 sec) 
 Total Blocks : 196608 Invalid Blocks : 72660 Valid Blocks : 123948
 Total Tags : 491520 Threshold : 12288 Invalid Tags : 269269 Pr0 Tags : 98303 Pr1 Tags : 123948 num_pr0 : 12288
 SAE Count : 0
 Inter-Core Inteference in Data Store : 0
Heartbeat CPU 0 instructions: 250000002 cycles: 808972367 heartbeat IPC: 0.0828529 cumulative IPC: 0.0809984 (Simulation time: 4 hr 16 min 41 sec) 
 Total Blocks : 196608 Invalid Blocks : 71940 Valid Blocks : 124668
 Total Tags : 491520 Threshold : 12288 Invalid Tags : 268548 Pr0 Tags : 98304 Pr1 Tags : 124668 num_pr0 : 12288
 SAE Count : 0
 Inter-Core Inteference in Data Store : 0
Heartbeat CPU 0 instructions: 260000003 cycles: 933849240 heartbeat IPC: 0.0800789 cumulative IPC: 0.0808437 (Simulation time: 4 hr 36 min 48 sec) 
 Total Blocks : 196608 Invalid Blocks : 71224 Valid Blocks : 125384
 Total Tags : 491520 Threshold : 12288 Invalid Tags : 267832 Pr0 Tags : 98304 Pr1 Tags : 125384 num_pr0 : 12288
 SAE Count : 0
 Inter-Core Inteference in Data Store : 0
Heartbeat CPU 0 instructions: 270000000 cycles: 1056830943 heartbeat IPC: 0.0813129 cumulative IPC: 0.0809104 (Simulation time: 4 hr 56 min 52 sec) 
 Total Blocks : 196608 Invalid Blocks : 70584 Valid Blocks : 126024
 Total Tags : 491520 Threshold : 12288 Invalid Tags : 267192 Pr0 Tags : 98304 Pr1 Tags : 126024 num_pr0 : 12288
 SAE Count : 0
 Inter-Core Inteference in Data Store : 0
Heartbeat CPU 0 instructions: 280000000 cycles: 1180086966 heartbeat IPC: 0.0811319 cumulative IPC: 0.080938 (Simulation time: 5 hr 17 min 47 sec) 
 Total Blocks : 196608 Invalid Blocks : 69967 Valid Blocks : 126641
 Total Tags : 491520 Threshold : 12288 Invalid Tags : 266575 Pr0 Tags : 98304 Pr1 Tags : 126641 num_pr0 : 12288
 SAE Count : 0
 Inter-Core Inteference in Data Store : 0
Heartbeat CPU 0 instructions: 290000001 cycles: 1304681260 heartbeat IPC: 0.0802605 cumulative IPC: 0.0808622 (Simulation time: 5 hr 38 min 39 sec) 
 Total Blocks : 196608 Invalid Blocks : 69385 Valid Blocks : 127223
 Total Tags : 491520 Threshold : 12288 Invalid Tags : 265993 Pr0 Tags : 98304 Pr1 Tags : 127223 num_pr0 : 12288
 SAE Count : 0
 Inter-Core Inteference in Data Store : 0
Heartbeat CPU 0 instructions: 300000000 cycles: 1429407955 heartbeat IPC: 0.0801753 cumulative IPC: 0.080793 (Simulation time: 5 hr 58 min 54 sec) 
 Total Blocks : 196608 Invalid Blocks : 68822 Valid Blocks : 127786
 Total Tags : 491520 Threshold : 12288 Invalid Tags : 265430 Pr0 Tags : 98304 Pr1 Tags : 127786 num_pr0 : 12288
 SAE Count : 0
 Inter-Core Inteference in Data Store : 0
Heartbeat CPU 0 instructions: 310000002 cycles: 1553313563 heartbeat IPC: 0.0807066 cumulative IPC: 0.0807851 (Simulation time: 6 hr 19 min 38 sec) 
 Total Blocks : 196608 Invalid Blocks : 68296 Valid Blocks : 128312
 Total Tags : 491520 Threshold : 12288 Invalid Tags : 264904 Pr0 Tags : 98304 Pr1 Tags : 128312 num_pr0 : 12288
 SAE Count : 0
 Inter-Core Inteference in Data Store : 0
Heartbeat CPU 0 instructions: 320000001 cycles: 1676962503 heartbeat IPC: 0.0808741 cumulative IPC: 0.0807925 (Simulation time: 6 hr 40 min 15 sec) 
 Total Blocks : 196608 Invalid Blocks : 67835 Valid Blocks : 128773
 Total Tags : 491520 Threshold : 12288 Invalid Tags : 264443 Pr0 Tags : 98304 Pr1 Tags : 128773 num_pr0 : 12288
 SAE Count : 0
 Inter-Core Inteference in Data Store : 0
Heartbeat CPU 0 instructions: 330000000 cycles: 1800949067 heartbeat IPC: 0.0806539 cumulative IPC: 0.0807818 (Simulation time: 7 hr 1 min 43 sec) 
 Total Blocks : 196608 Invalid Blocks : 67364 Valid Blocks : 129244
 Total Tags : 491520 Threshold : 12288 Invalid Tags : 263972 Pr0 Tags : 98304 Pr1 Tags : 129244 num_pr0 : 12288
 SAE Count : 0
 Inter-Core Inteference in Data Store : 0
Heartbeat CPU 0 instructions: 340000000 cycles: 1923961616 heartbeat IPC: 0.0812925 cumulative IPC: 0.0808181 (Simulation time: 7 hr 22 min 38 sec) 
 Total Blocks : 196608 Invalid Blocks : 66913 Valid Blocks : 129695
 Total Tags : 491520 Threshold : 12288 Invalid Tags : 263521 Pr0 Tags : 98304 Pr1 Tags : 129695 num_pr0 : 12288
 SAE Count : 0
 Inter-Core Inteference in Data Store : 0
Heartbeat CPU 0 instructions: 350000000 cycles: 2047944252 heartbeat IPC: 0.0806565 cumulative IPC: 0.0808073 (Simulation time: 7 hr 43 min 44 sec) 
 Total Blocks : 196608 Invalid Blocks : 66514 Valid Blocks : 130094
 Total Tags : 491520 Threshold : 12288 Invalid Tags : 263122 Pr0 Tags : 98304 Pr1 Tags : 130094 num_pr0 : 12288
 SAE Count : 0
 Inter-Core Inteference in Data Store : 0
Heartbeat CPU 0 instructions: 360000001 cycles: 2172031946 heartbeat IPC: 0.0805882 cumulative IPC: 0.0807936 (Simulation time: 8 hr 4 min 2 sec) 
 Total Blocks : 196608 Invalid Blocks : 66143 Valid Blocks : 130465
 Total Tags : 491520 Threshold : 12288 Invalid Tags : 262751 Pr0 Tags : 98304 Pr1 Tags : 130465 num_pr0 : 12288
 SAE Count : 0
 Inter-Core Inteference in Data Store : 0
Heartbeat CPU 0 instructions: 370000000 cycles: 2297978087 heartbeat IPC: 0.079399 cumulative IPC: 0.0807102 (Simulation time: 8 hr 25 min 2 sec) 
 Total Blocks : 196608 Invalid Blocks : 65801 Valid Blocks : 130807
 Total Tags : 491520 Threshold : 12288 Invalid Tags : 262409 Pr0 Tags : 98304 Pr1 Tags : 130807 num_pr0 : 12288
 SAE Count : 0
 Inter-Core Inteference in Data Store : 0
Heartbeat CPU 0 instructions: 380000001 cycles: 2351248806 heartbeat IPC: 0.18772 cumulative IPC: 0.0833498 (Simulation time: 8 hr 48 min 18 sec) 
 Total Blocks : 196608 Invalid Blocks : 65623 Valid Blocks : 130985
 Total Tags : 491520 Threshold : 12288 Invalid Tags : 262231 Pr0 Tags : 98304 Pr1 Tags : 130985 num_pr0 : 12288
 SAE Count : 0
 Inter-Core Inteference in Data Store : 0
Heartbeat CPU 0 instructions: 390000000 cycles: 2410943872 heartbeat IPC: 0.167518 cumulative IPC: 0.0856138 (Simulation time: 9 hr 13 min 59 sec) 
 Total Blocks : 196608 Invalid Blocks : 64388 Valid Blocks : 132220
 Total Tags : 491520 Threshold : 12288 Invalid Tags : 260996 Pr0 Tags : 98304 Pr1 Tags : 132220 num_pr0 : 12288
 SAE Count : 0
 Inter-Core Inteference in Data Store : 0
Heartbeat CPU 0 instructions: 400000000 cycles: 2535044820 heartbeat IPC: 0.0805796 cumulative IPC: 0.0853472 (Simulation time: 9 hr 34 min 53 sec) 
 Total Blocks : 196608 Invalid Blocks : 63791 Valid Blocks : 132817
 Total Tags : 491520 Threshold : 12288 Invalid Tags : 260399 Pr0 Tags : 98304 Pr1 Tags : 132817 num_pr0 : 12288
 SAE Count : 0
 Inter-Core Inteference in Data Store : 0
Finished CPU 0 instructions: 200000003 cycles: 2343368386 cumulative IPC: 0.0853472 (Simulation time: 9 hr 34 min 54 sec) 

CPU 0 Branch Prediction Accuracy: 96.4308% MPKI: 6.60772 Average ROB Occupancy at Mispredict: 145.733

ChampSim completed all CPUs

Region of Interest Statistics

CPU 0 cumulative IPC: 0.0853472 instructions: 200000003 cycles: 2343368386
ITLB TOTAL     ACCESS: 34181402  HIT: 34181402  MISS:     0  HIT %:   100  MISS %:     0  AVERAGE MISS PENALTY: 0
ITLB LOAD      ACCESS: 34181402  HIT: 34181402  MISS:     0  HIT %:   100  MISS %:     0  AVERAGE MISS PENALTY: 0
ITLB RFO       ACCESS:     0  HIT:     0  MISS:     0  HIT %:     0  MISS %:     0  AVERAGE MISS PENALTY: 0
ITLB PREFETCH  ACCESS:     0  HIT:     0  MISS:     0  HIT %:     0  MISS %:     0  AVERAGE MISS PENALTY: 0
ITLB WRITEBACK ACCESS:     0  HIT:     0  MISS:     0  HIT %:     0  MISS %:     0  AVERAGE MISS PENALTY: 0
ITLB PREFETCH  REQUESTED:     0  ISSUED:     0  USEFUL:     0  USELESS:     0
 USEFUL LOAD PREFETCHES:          0 PREFETCH ISSUED TO LOWER LEVEL:          0  ACCURACY: -nan
 TIMELY PREFETCHES:          0 LATE PREFETCHES: 0 DROPPED PREFETCHES: 0
ITLB AVERAGE MISS LATENCY: -nan cycles

ITLB Set Associative Eviction Count : 0
ITLB Priority 0 entries : 0
ITLB Inter-Core Interference : 0
DTLB TOTAL     ACCESS: 78330278  HIT: 55383576  MISS: 22946702  HIT %: 70.7052  MISS %: 29.2948  AVERAGE MISS PENALTY: 9.18661
DTLB LOAD      ACCESS: 75592365  HIT: 52650659  MISS: 22941706  HIT %: 69.6508  MISS %: 30.3492  AVERAGE MISS PENALTY: 9.18334
DTLB RFO       ACCESS: 2737913  HIT: 2732917  MISS:  4996  HIT %: 99.8175  MISS %: 0.182475  AVERAGE MISS PENALTY: 24.1922
DTLB PREFETCH  ACCESS:     0  HIT:     0  MISS:     0  HIT %:     0  MISS %:     0  AVERAGE MISS PENALTY: 0
DTLB WRITEBACK ACCESS:     0  HIT:     0  MISS:     0  HIT %:     0  MISS %:     0  AVERAGE MISS PENALTY: 0
DTLB PREFETCH  REQUESTED:     0  ISSUED:     0  USEFUL:     0  USELESS:     0
 USEFUL LOAD PREFETCHES:          0 PREFETCH ISSUED TO LOWER LEVEL:          0  ACCURACY: -nan
 TIMELY PREFETCHES:          0 LATE PREFETCHES: 0 DROPPED PREFETCHES: 0
DTLB AVERAGE MISS LATENCY: 9.18661 cycles

DTLB Set Associative Eviction Count : 0
DTLB Priority 0 entries : 0
DTLB Inter-Core Interference : 0
STLB TOTAL     ACCESS: 22946702  HIT: 22905889  MISS: 40813  HIT %: 99.8221  MISS %: 0.17786  AVERAGE MISS PENALTY: 100
STLB LOAD      ACCESS: 22941706  HIT: 22901652  MISS: 40054  HIT %: 99.8254  MISS %: 0.17459  AVERAGE MISS PENALTY: 100
STLB RFO       ACCESS:  4996  HIT:  4237  MISS:   759  HIT %: 84.8078  MISS %: 15.1922  AVERAGE MISS PENALTY: 100
STLB PREFETCH  ACCESS:     0  HIT:     0  MISS:     0  HIT %:     0  MISS %:     0  AVERAGE MISS PENALTY: 0
STLB WRITEBACK ACCESS:     0  HIT:     0  MISS:     0  HIT %:     0  MISS %:     0  AVERAGE MISS PENALTY: 0
STLB PREFETCH  REQUESTED:     0  ISSUED:     0  USEFUL:     0  USELESS:     0
 USEFUL LOAD PREFETCHES:          0 PREFETCH ISSUED TO LOWER LEVEL:          0  ACCURACY: -nan
 TIMELY PREFETCHES:          0 LATE PREFETCHES: 0 DROPPED PREFETCHES: 0
STLB AVERAGE MISS LATENCY: 100 cycles

STLB Set Associative Eviction Count : 0
STLB Priority 0 entries : 0
STLB Inter-Core Interference : 0
L1D TOTAL     ACCESS: 257737409  HIT: 48289627  MISS: 209447782  HIT %: 18.736  MISS %: 81.264  AVERAGE MISS PENALTY: 3.97651e+06
L1D LOAD      ACCESS: 66680116  HIT: 35080594  MISS: 31599522  HIT %: 52.6103  MISS %: 47.3897  AVERAGE MISS PENALTY: 2.63567e+07
L1D RFO       ACCESS: 2621999  HIT: 2556438  MISS: 65561  HIT %: 97.4996  MISS %: 2.50042  AVERAGE MISS PENALTY: 57.0388
L1D PREFETCH  ACCESS: 188435294  HIT: 10652595  MISS: 177782699  HIT %: 5.65318  MISS %: 94.3468  AVERAGE MISS PENALTY: 69.7052
L1D WRITEBACK ACCESS:     0  HIT:     0  MISS:     0  HIT %:     0  MISS %:     0  AVERAGE MISS PENALTY: 0
L1D PREFETCH  REQUESTED: 193199266  ISSUED: 191967315  USEFUL: 4189787  USELESS: 173592873
 USEFUL LOAD PREFETCHES:    4189787 PREFETCH ISSUED TO LOWER LEVEL:  181198265  ACCURACY: 2.31227
 TIMELY PREFETCHES:    4189787 LATE PREFETCHES: 618324 DROPPED PREFETCHES: 1231951
L1D AVERAGE MISS LATENCY: 52.235 cycles

L1D Set Associative Eviction Count : 0
L1D Priority 0 entries : 0
L1D Inter-Core Interference : 0
L1I TOTAL     ACCESS: 35925151  HIT: 35925138  MISS:    13  HIT %:   100  MISS %: 3.61863e-05  AVERAGE MISS PENALTY: 115.154
L1I LOAD      ACCESS: 35925151  HIT: 35925138  MISS:    13  HIT %:   100  MISS %: 3.61863e-05  AVERAGE MISS PENALTY: 115.154
L1I RFO       ACCESS:     0  HIT:     0  MISS:     0  HIT %:     0  MISS %:     0  AVERAGE MISS PENALTY: 0
L1I PREFETCH  ACCESS:     0  HIT:     0  MISS:     0  HIT %:     0  MISS %:     0  AVERAGE MISS PENALTY: 0
L1I WRITEBACK ACCESS:     0  HIT:     0  MISS:     0  HIT %:     0  MISS %:     0  AVERAGE MISS PENALTY: 0
L1I PREFETCH  REQUESTED:     0  ISSUED:     0  USEFUL:     0  USELESS:     0
 USEFUL LOAD PREFETCHES:          0 PREFETCH ISSUED TO LOWER LEVEL:          0  ACCURACY: -nan
 TIMELY PREFETCHES:          0 LATE PREFETCHES: 0 DROPPED PREFETCHES: 0
L1I AVERAGE MISS LATENCY: 115.154 cycles

L1I Set Associative Eviction Count : 0
L1I Priority 0 entries : 0
L1I Inter-Core Interference : 0
L2C TOTAL     ACCESS: 351180706  HIT: 24836797  MISS: 326343909  HIT %: 7.07237  MISS %: 92.9276  AVERAGE MISS PENALTY: 2.13401e+06
L2C LOAD      ACCESS: 31530398  HIT: 1788305  MISS: 29742093  HIT %: 5.67169  MISS %: 94.3283  AVERAGE MISS PENALTY: 2.3415e+07
L2C RFO       ACCESS: 65561  HIT:    75  MISS: 65486  HIT %: 0.114397  MISS %: 99.8856  AVERAGE MISS PENALTY: 42.0812
L2C PREFETCH  ACCESS: 319349312  HIT: 22812987  MISS: 296536325  HIT %: 7.14358  MISS %: 92.8564  AVERAGE MISS PENALTY: 39.4282
L2C WRITEBACK ACCESS: 235435  HIT: 235430  MISS:     5  HIT %: 99.9979  MISS %: 0.00212373  AVERAGE MISS PENALTY: 0
L2C PREFETCH  REQUESTED: 784545817  ISSUED: 784528299  USEFUL: 1395429  USELESS: 295139907
 USEFUL LOAD PREFETCHES:    1395429 PREFETCH ISSUED TO LOWER LEVEL:  300110574  ACCURACY: 0.464972
 TIMELY PREFETCHES:    1395429 LATE PREFETCHES: 640212 DROPPED PREFETCHES: 17518
L2C AVERAGE MISS LATENCY: 38.7365 cycles

L2C Set Associative Eviction Count : 0
L2C Priority 0 entries : 0
L2C Inter-Core Interference : 0
LLC0 TOTAL     ACCESS: 42027114  HIT: 41723697  MISS: 303417  HIT %: 99.278  MISS %: 0.721955  AVERAGE MISS PENALTY: 92.1179
LLC0 LOAD      ACCESS: 3847004  HIT: 3809447  MISS: 37557  HIT %: 99.0237  MISS %: 0.976266  AVERAGE MISS PENALTY: 102.242
LLC0 RFO       ACCESS:  8186  HIT:  8171  MISS:    15  HIT %: 99.8168  MISS %: 0.18324  AVERAGE MISS PENALTY: 108.667
LLC0 PREFETCH  ACCESS: 38154935  HIT: 37891473  MISS: 263462  HIT %: 99.3095  MISS %: 0.690506  AVERAGE MISS PENALTY: 91.507
LLC0 WRITEBACK ACCESS: 16989  HIT: 14606  MISS:  2383  HIT %: 85.9733  MISS %: 14.0267  AVERAGE MISS PENALTY: 0
LLC0 PREFETCH  REQUESTED:     0  ISSUED:     0  USEFUL:  1440  USELESS:   103
 USEFUL LOAD PREFETCHES:       1440 PREFETCH ISSUED TO LOWER LEVEL:     263462  ACCURACY: 0.546568
 TIMELY PREFETCHES:       1440 LATE PREFETCHES: 0 DROPPED PREFETCHES: 0
LLC0 AVERAGE MISS LATENCY: 92.1179 cycles

LLC0 Set Associative Eviction Count : 0
LLC0 Priority 0 entries : 12288
LLC0 Inter-Core Interference : 0
LLC1 TOTAL     ACCESS: 42129447  HIT: 41825976  MISS: 303471  HIT %: 99.2797  MISS %: 0.72033  AVERAGE MISS PENALTY: 93.6149
LLC1 LOAD      ACCESS: 3790671  HIT: 3786001  MISS:  4670  HIT %: 99.8768  MISS %: 0.123197  AVERAGE MISS PENALTY: 122.853
LLC1 RFO       ACCESS:  8188  HIT:  8176  MISS:    12  HIT %: 99.8534  MISS %: 0.146556  AVERAGE MISS PENALTY: 78.4167
LLC1 PREFETCH  ACCESS: 38313595  HIT: 38017253  MISS: 296342  HIT %: 99.2265  MISS %: 0.773464  AVERAGE MISS PENALTY: 93.9277
LLC1 WRITEBACK ACCESS: 16993  HIT: 14546  MISS:  2447  HIT %:  85.6  MISS %:  14.4  AVERAGE MISS PENALTY: 0
LLC1 PREFETCH  REQUESTED:     0  ISSUED:     0  USEFUL:  1421  USELESS:   151
 USEFUL LOAD PREFETCHES:       1421 PREFETCH ISSUED TO LOWER LEVEL:     296342  ACCURACY: 0.479514
 TIMELY PREFETCHES:       1421 LATE PREFETCHES: 0 DROPPED PREFETCHES: 0
LLC1 AVERAGE MISS LATENCY: 93.6149 cycles

LLC1 Set Associative Eviction Count : 0
LLC1 Priority 0 entries : 12288
LLC1 Inter-Core Interference : 0
LLC2 TOTAL     ACCESS: 41755043  HIT: 41451561  MISS: 303482  HIT %: 99.2732  MISS %: 0.726815  AVERAGE MISS PENALTY: 94.3263
LLC2 LOAD      ACCESS: 3607736  HIT: 3607596  MISS:   140  HIT %: 99.9961  MISS %: 0.00388055  AVERAGE MISS PENALTY: 174.836
LLC2 RFO       ACCESS:  8185  HIT:  8175  MISS:    10  HIT %: 99.8778  MISS %: 0.122175  AVERAGE MISS PENALTY: 89.2
LLC2 PREFETCH  ACCESS: 38122130  HIT: 37821226  MISS: 300904  HIT %: 99.2107  MISS %: 0.789316  AVERAGE MISS PENALTY: 95.0502
LLC2 WRITEBACK ACCESS: 16992  HIT: 14564  MISS:  2428  HIT %: 85.7109  MISS %: 14.2891  AVERAGE MISS PENALTY: 0
LLC2 PREFETCH  REQUESTED:     0  ISSUED:     0  USEFUL:  1397  USELESS:   140
 USEFUL LOAD PREFETCHES:       1397 PREFETCH ISSUED TO LOWER LEVEL:     300904  ACCURACY: 0.464268
 TIMELY PREFETCHES:       1397 LATE PREFETCHES: 0 DROPPED PREFETCHES: 0
LLC2 AVERAGE MISS LATENCY: 94.3263 cycles

LLC2 Set Associative Eviction Count : 0
LLC2 Priority 0 entries : 12288
LLC2 Inter-Core Interference : 0
LLC3 TOTAL     ACCESS: 40989254  HIT: 40686058  MISS: 303196  HIT %: 99.2603  MISS %: 0.739696  AVERAGE MISS PENALTY: 94.3706
LLC3 LOAD      ACCESS: 3696306  HIT: 3696144  MISS:   162  HIT %: 99.9956  MISS %: 0.00438275  AVERAGE MISS PENALTY: 176.827
LLC3 RFO       ACCESS:  8185  HIT:  8172  MISS:    13  HIT %: 99.8412  MISS %: 0.158827  AVERAGE MISS PENALTY: 118.077
LLC3 PREFETCH  ACCESS: 37267771  HIT: 36967086  MISS: 300685  HIT %: 99.1932  MISS %: 0.806823  AVERAGE MISS PENALTY: 95.0583
LLC3 WRITEBACK ACCESS: 16992  HIT: 14656  MISS:  2336  HIT %: 86.2524  MISS %: 13.7476  AVERAGE MISS PENALTY: 0
LLC3 PREFETCH  REQUESTED:     0  ISSUED:     0  USEFUL:  1342  USELESS:   126
 USEFUL LOAD PREFETCHES:       1342 PREFETCH ISSUED TO LOWER LEVEL:     300685  ACCURACY: 0.446314
 TIMELY PREFETCHES:       1342 LATE PREFETCHES: 0 DROPPED PREFETCHES: 0
LLC3 AVERAGE MISS LATENCY: 94.3706 cycles

LLC3 Set Associative Eviction Count : 0
LLC3 Priority 0 entries : 12288
LLC3 Inter-Core Interference : 0
LLC4 TOTAL     ACCESS: 40809317  HIT: 40506136  MISS: 303181  HIT %: 99.2571  MISS %: 0.742921  AVERAGE MISS PENALTY: 94.8746
LLC4 LOAD      ACCESS: 3693681  HIT: 3693563  MISS:   118  HIT %: 99.9968  MISS %: 0.00319465  AVERAGE MISS PENALTY: 175.22
LLC4 RFO       ACCESS:  8185  HIT:  8169  MISS:    16  HIT %: 99.8045  MISS %: 0.19548  AVERAGE MISS PENALTY: 84.25
LLC4 PREFETCH  ACCESS: 37090460  HIT: 36789813  MISS: 300647  HIT %: 99.1894  MISS %: 0.810578  AVERAGE MISS PENALTY: 95.601
LLC4 WRITEBACK ACCESS: 16991  HIT: 14591  MISS:  2400  HIT %: 85.8749  MISS %: 14.1251  AVERAGE MISS PENALTY: 0
LLC4 PREFETCH  REQUESTED:     0  ISSUED:     0  USEFUL:  1285  USELESS:   112
 USEFUL LOAD PREFETCHES:       1285 PREFETCH ISSUED TO LOWER LEVEL:     300647  ACCURACY: 0.427412
 TIMELY PREFETCHES:       1285 LATE PREFETCHES: 0 DROPPED PREFETCHES: 0
LLC4 AVERAGE MISS LATENCY: 94.8746 cycles

LLC4 Set Associative Eviction Count : 0
LLC4 Priority 0 entries : 12288
LLC4 Inter-Core Interference : 0
LLC5 TOTAL     ACCESS: 40368073  HIT: 40064772  MISS: 303301  HIT %: 99.2487  MISS %: 0.751339  AVERAGE MISS PENALTY: 95.4068
LLC5 LOAD      ACCESS: 3581638  HIT: 3581494  MISS:   144  HIT %: 99.996  MISS %: 0.00402051  AVERAGE MISS PENALTY: 174.875
LLC5 RFO       ACCESS:  8186  HIT:  8174  MISS:    12  HIT %: 99.8534  MISS %: 0.146592  AVERAGE MISS PENALTY: 78.0833
LLC5 PREFETCH  ACCESS: 36761258  HIT: 36460503  MISS: 300755  HIT %: 99.1819  MISS %: 0.81813  AVERAGE MISS PENALTY: 96.1277
LLC5 WRITEBACK ACCESS: 16991  HIT: 14601  MISS:  2390  HIT %: 85.9337  MISS %: 14.0663  AVERAGE MISS PENALTY: 0
LLC5 PREFETCH  REQUESTED:     0  ISSUED:     0  USEFUL:  1330  USELESS:   135
 USEFUL LOAD PREFETCHES:       1330 PREFETCH ISSUED TO LOWER LEVEL:     300755  ACCURACY: 0.44222
 TIMELY PREFETCHES:       1330 LATE PREFETCHES: 0 DROPPED PREFETCHES: 0
LLC5 AVERAGE MISS LATENCY: 95.4068 cycles

LLC5 Set Associative Eviction Count : 0
LLC5 Priority 0 entries : 12288
LLC5 Inter-Core Interference : 0
LLC6 TOTAL     ACCESS: 39648872  HIT: 39345764  MISS: 303108  HIT %: 99.2355  MISS %: 0.764481  AVERAGE MISS PENALTY: 96.1985
LLC6 LOAD      ACCESS: 3811245  HIT: 3811107  MISS:   138  HIT %: 99.9964  MISS %: 0.00362086  AVERAGE MISS PENALTY: 173.667
LLC6 RFO       ACCESS:  8186  HIT:  8172  MISS:    14  HIT %: 99.829  MISS %: 0.171024  AVERAGE MISS PENALTY: 78.3571
LLC6 PREFETCH  ACCESS: 35812449  HIT: 35511827  MISS: 300622  HIT %: 99.1606  MISS %: 0.839434  AVERAGE MISS PENALTY: 96.9107
LLC6 WRITEBACK ACCESS: 16992  HIT: 14658  MISS:  2334  HIT %: 86.2641  MISS %: 13.7359  AVERAGE MISS PENALTY: 0
LLC6 PREFETCH  REQUESTED:     0  ISSUED:     0  USEFUL:  1353  USELESS:   135
 USEFUL LOAD PREFETCHES:       1353 PREFETCH ISSUED TO LOWER LEVEL:     300622  ACCURACY: 0.450067
 TIMELY PREFETCHES:       1353 LATE PREFETCHES: 0 DROPPED PREFETCHES: 0
LLC6 AVERAGE MISS LATENCY: 96.1985 cycles

LLC6 Set Associative Eviction Count : 0
LLC6 Priority 0 entries : 12288
LLC6 Inter-Core Interference : 0
LLC7 TOTAL     ACCESS: 38752715  HIT: 38449481  MISS: 303234  HIT %: 99.2175  MISS %: 0.782485  AVERAGE MISS PENALTY: 95.8627
LLC7 LOAD      ACCESS: 3641497  HIT: 3641350  MISS:   147  HIT %: 99.996  MISS %: 0.0040368  AVERAGE MISS PENALTY: 175.422
LLC7 RFO       ACCESS:  8185  HIT:  8168  MISS:    17  HIT %: 99.7923  MISS %: 0.207697  AVERAGE MISS PENALTY: 86.2353
LLC7 PREFETCH  ACCESS: 35086043  HIT: 34785334  MISS: 300709  HIT %: 99.1429  MISS %: 0.857062  AVERAGE MISS PENALTY: 96.577
LLC7 WRITEBACK ACCESS: 16990  HIT: 14629  MISS:  2361  HIT %: 86.1036  MISS %: 13.8964  AVERAGE MISS PENALTY: 0
LLC7 PREFETCH  REQUESTED:     0  ISSUED:     0  USEFUL:  1343  USELESS:   136
 USEFUL LOAD PREFETCHES:       1343 PREFETCH ISSUED TO LOWER LEVEL:     300709  ACCURACY: 0.446611
 TIMELY PREFETCHES:       1343 LATE PREFETCHES: 0 DROPPED PREFETCHES: 0
LLC7 AVERAGE MISS LATENCY: 95.8627 cycles

LLC7 Set Associative Eviction Count : 0
LLC7 Priority 0 entries : 12288
LLC7 Inter-Core Interference : 0
ROI Average ROB Stall Cycles:	53.9915
ROI Total ROB Stalls Cycles:	2304834683
ROI TOTAL ROB counter      :	42688853
ROI Average Load ROB Stall Cycles:	63.2558
ROI Total Load ROB Stalls Cycle  :	2223645761
ROI Total Load ROB stalls Counter:	35153254
Major fault: 0 Minor fault: 34808

