
*** ChampSim Multicore Out-of-Order Simulator ***

Warmup Instructions: 200000000
Simulation Instructions: 200000000
Number of CPUs: 8
threads:1

L1I Configuration:
L1I_SET:64
L1I_WAY:8
L1I_RQ_SIZE:64
L1I_WQ_SIZE:64
L1I_PQ_SIZE:8
L1I_MSHR_SIZE:8

L1D Configuration:
L1D_SET:64
L1D_WAY:12
L1D_RQ_SIZE:64
L1D_WQ_SIZE:64
L1D_PQ_SIZE:8
L1D_MSHR_SIZE:16

L2C Configuration:
L2C_SET:1024
L2C_WAY:8
L2C_RQ_SIZE:32
L2C_WQ_SIZE:32
L2C_PQ_SIZE:16
L2C_MSHR_SIZE:32

LLC Configuration:
LLC_SET:2048
LLC_WAY:16
LLC SLICES:8
LLC_RQ_SIZE:64
LLC_WQ_SIZE:64
LLC_PQ_SIZE:32
LLC_MSHR_SIZE:64

Interconnect OFF
Attacker deprioritize is: OFF
Off-chip DRAM Size: 8192 MB Channels: 2 Width: 64-bit Data Rate: 3200 MT/s
PAGE SIZE in KB: 4.000000 
PAGE SIZE in MB: 0.003906 
PAGE offset in bits: 12 
CEASER-S_LLC:0
MIRAGE : 1
CEASER_LATENCY:3
REMAP : OFF
Partitions : 1
Multi-Step : OFF
BFS : OFF

CPU 0 runs /home/anubhav/spec_2017/602.gcc_s-734B.champsimtrace.xz
CPU 1 runs /home/anubhav/spec_2017/602.gcc_s-734B.champsimtrace.xz
CPU 2 runs /home/anubhav/spec_2017/602.gcc_s-734B.champsimtrace.xz
CPU 3 runs /home/anubhav/spec_2017/602.gcc_s-734B.champsimtrace.xz
CPU 4 runs /home/anubhav/spec_2017/602.gcc_s-734B.champsimtrace.xz
CPU 5 runs /home/anubhav/spec_2017/602.gcc_s-734B.champsimtrace.xz
CPU 6 runs /home/anubhav/spec_2017/602.gcc_s-734B.champsimtrace.xz
CPU 7 runs /home/anubhav/spec_2017/602.gcc_s-734B.champsimtrace.xz
CPU 0 Bimodal branch predictor
Initialize Hawkeye state
Initialize Hawkeye state
Initialize Hawkeye state
Initialize Hawkeye state
Initialize Hawkeye state
Initialize Hawkeye state
Initialize Hawkeye state
Initialize Hawkeye state
CPU 1 Bimodal branch predictor
Initialize Hawkeye state
Initialize Hawkeye state
Initialize Hawkeye state
Initialize Hawkeye state
Initialize Hawkeye state
Initialize Hawkeye state
Initialize Hawkeye state
Initialize Hawkeye state
CPU 2 Bimodal branch predictor
Initialize Hawkeye state
Initialize Hawkeye state
Initialize Hawkeye state
Initialize Hawkeye state
Initialize Hawkeye state
Initialize Hawkeye state
Initialize Hawkeye state
Initialize Hawkeye state
CPU 3 Bimodal branch predictor
Initialize Hawkeye state
Initialize Hawkeye state
Initialize Hawkeye state
Initialize Hawkeye state
Initialize Hawkeye state
Initialize Hawkeye state
Initialize Hawkeye state
Initialize Hawkeye state
CPU 4 Bimodal branch predictor
Initialize Hawkeye state
Initialize Hawkeye state
Initialize Hawkeye state
Initialize Hawkeye state
Initialize Hawkeye state
Initialize Hawkeye state
Initialize Hawkeye state
Initialize Hawkeye state
CPU 5 Bimodal branch predictor
Initialize Hawkeye state
Initialize Hawkeye state
Initialize Hawkeye state
Initialize Hawkeye state
Initialize Hawkeye state
Initialize Hawkeye state
Initialize Hawkeye state
Initialize Hawkeye state
CPU 6 Bimodal branch predictor
Initialize Hawkeye state
Initialize Hawkeye state
Initialize Hawkeye state
Initialize Hawkeye state
Initialize Hawkeye state
Initialize Hawkeye state
Initialize Hawkeye state
Initialize Hawkeye state
CPU 7 Bimodal branch predictor
Initialize Hawkeye state
Initialize Hawkeye state
Initialize Hawkeye state
Initialize Hawkeye state
Initialize Hawkeye state
Initialize Hawkeye state
Initialize Hawkeye state
Initialize Hawkeye state
Heartbeat CPU 0 instructions: 10000000 cycles: 7637177 heartbeat IPC: 1.30938 cumulative IPC: 1.30938 (Simulation time: 0 hr 14 min 56 sec) 
 Total Blocks : 262144 Invalid Blocks : 18899
Heartbeat CPU 1 instructions: 10000000 cycles: 7637181 heartbeat IPC: 1.30938 cumulative IPC: 1.30938 (Simulation time: 0 hr 14 min 56 sec) 
 Total Blocks : 262144 Invalid Blocks : 18899
Heartbeat CPU 2 instructions: 10000000 cycles: 7637190 heartbeat IPC: 1.30938 cumulative IPC: 1.30938 (Simulation time: 0 hr 14 min 56 sec) 
 Total Blocks : 262144 Invalid Blocks : 18899
Heartbeat CPU 3 instructions: 10000000 cycles: 7637207 heartbeat IPC: 1.30938 cumulative IPC: 1.30938 (Simulation time: 0 hr 14 min 56 sec) 
 Total Blocks : 262144 Invalid Blocks : 18899
Heartbeat CPU 4 instructions: 10000000 cycles: 7637470 heartbeat IPC: 1.30933 cumulative IPC: 1.30933 (Simulation time: 0 hr 14 min 56 sec) 
 Total Blocks : 262144 Invalid Blocks : 18898
Heartbeat CPU 6 instructions: 10000000 cycles: 7637471 heartbeat IPC: 1.30933 cumulative IPC: 1.30933 (Simulation time: 0 hr 14 min 56 sec) 
 Total Blocks : 262144 Invalid Blocks : 18898
Heartbeat CPU 7 instructions: 10000000 cycles: 7637474 heartbeat IPC: 1.30933 cumulative IPC: 1.30933 (Simulation time: 0 hr 14 min 56 sec) 
 Total Blocks : 262144 Invalid Blocks : 18898
Heartbeat CPU 5 instructions: 10000000 cycles: 7637478 heartbeat IPC: 1.30933 cumulative IPC: 1.30933 (Simulation time: 0 hr 14 min 56 sec) 
 Total Blocks : 262144 Invalid Blocks : 18898
Heartbeat CPU 0 instructions: 20000000 cycles: 15265856 heartbeat IPC: 1.31084 cumulative IPC: 1.31011 (Simulation time: 0 hr 34 min 43 sec) 
 Total Blocks : 262144 Invalid Blocks : 1292
Heartbeat CPU 1 instructions: 20000000 cycles: 15265857 heartbeat IPC: 1.31084 cumulative IPC: 1.31011 (Simulation time: 0 hr 34 min 43 sec) 
 Total Blocks : 262144 Invalid Blocks : 1292
Heartbeat CPU 2 instructions: 20000000 cycles: 15265879 heartbeat IPC: 1.31084 cumulative IPC: 1.31011 (Simulation time: 0 hr 34 min 43 sec) 
 Total Blocks : 262144 Invalid Blocks : 1292
Heartbeat CPU 3 instructions: 20000000 cycles: 15265890 heartbeat IPC: 1.31084 cumulative IPC: 1.31011 (Simulation time: 0 hr 34 min 43 sec) 
 Total Blocks : 262144 Invalid Blocks : 1292
Heartbeat CPU 7 instructions: 20000000 cycles: 15266183 heartbeat IPC: 1.31084 cumulative IPC: 1.31009 (Simulation time: 0 hr 34 min 43 sec) 
 Total Blocks : 262144 Invalid Blocks : 1292
Heartbeat CPU 4 instructions: 20000000 cycles: 15266185 heartbeat IPC: 1.31084 cumulative IPC: 1.31009 (Simulation time: 0 hr 34 min 43 sec) 
 Total Blocks : 262144 Invalid Blocks : 1292
Heartbeat CPU 5 instructions: 20000000 cycles: 15266198 heartbeat IPC: 1.31084 cumulative IPC: 1.31008 (Simulation time: 0 hr 34 min 43 sec) 
 Total Blocks : 262144 Invalid Blocks : 1292
Heartbeat CPU 6 instructions: 20000000 cycles: 15266201 heartbeat IPC: 1.31083 cumulative IPC: 1.31008 (Simulation time: 0 hr 34 min 43 sec) 
 Total Blocks : 262144 Invalid Blocks : 1292
Heartbeat CPU 0 instructions: 30000003 cycles: 22896465 heartbeat IPC: 1.31051 cumulative IPC: 1.31025 (Simulation time: 0 hr 55 min 35 sec) 
 Total Blocks : 262144 Invalid Blocks : 114
Heartbeat CPU 1 instructions: 30000003 cycles: 22896474 heartbeat IPC: 1.31051 cumulative IPC: 1.31025 (Simulation time: 0 hr 55 min 35 sec) 
 Total Blocks : 262144 Invalid Blocks : 114
Heartbeat CPU 2 instructions: 30000003 cycles: 22896499 heartbeat IPC: 1.31051 cumulative IPC: 1.31024 (Simulation time: 0 hr 55 min 35 sec) 
 Total Blocks : 262144 Invalid Blocks : 114
Heartbeat CPU 3 instructions: 30000003 cycles: 22896516 heartbeat IPC: 1.31051 cumulative IPC: 1.31024 (Simulation time: 0 hr 55 min 35 sec) 
 Total Blocks : 262144 Invalid Blocks : 114
Heartbeat CPU 7 instructions: 30000003 cycles: 22896717 heartbeat IPC: 1.31052 cumulative IPC: 1.31023 (Simulation time: 0 hr 55 min 35 sec) 
 Total Blocks : 262144 Invalid Blocks : 114
Heartbeat CPU 5 instructions: 30000003 cycles: 22896740 heartbeat IPC: 1.31052 cumulative IPC: 1.31023 (Simulation time: 0 hr 55 min 35 sec) 
 Total Blocks : 262144 Invalid Blocks : 114
Heartbeat CPU 4 instructions: 30000003 cycles: 22896752 heartbeat IPC: 1.31052 cumulative IPC: 1.31023 (Simulation time: 0 hr 55 min 35 sec) 
 Total Blocks : 262144 Invalid Blocks : 114
Heartbeat CPU 6 instructions: 30000003 cycles: 22896764 heartbeat IPC: 1.31052 cumulative IPC: 1.31023 (Simulation time: 0 hr 55 min 35 sec) 
 Total Blocks : 262144 Invalid Blocks : 114
Heartbeat CPU 3 instructions: 40000001 cycles: 30545229 heartbeat IPC: 1.30741 cumulative IPC: 1.30953 (Simulation time: 1 hr 7 min 50 sec) 
 Total Blocks : 262144 Invalid Blocks : 9
Heartbeat CPU 2 instructions: 40000001 cycles: 30545328 heartbeat IPC: 1.30739 cumulative IPC: 1.30953 (Simulation time: 1 hr 7 min 50 sec) 
 Total Blocks : 262144 Invalid Blocks : 9
Heartbeat CPU 0 instructions: 40000001 cycles: 30545406 heartbeat IPC: 1.30737 cumulative IPC: 1.30953 (Simulation time: 1 hr 7 min 50 sec) 
 Total Blocks : 262144 Invalid Blocks : 9
Heartbeat CPU 1 instructions: 40000001 cycles: 30545431 heartbeat IPC: 1.30737 cumulative IPC: 1.30952 (Simulation time: 1 hr 7 min 50 sec) 
 Total Blocks : 262144 Invalid Blocks : 9
Heartbeat CPU 6 instructions: 40000001 cycles: 30545435 heartbeat IPC: 1.30742 cumulative IPC: 1.30952 (Simulation time: 1 hr 7 min 50 sec) 
 Total Blocks : 262144 Invalid Blocks : 9
Heartbeat CPU 7 instructions: 40000001 cycles: 30545506 heartbeat IPC: 1.3074 cumulative IPC: 1.30952 (Simulation time: 1 hr 7 min 50 sec) 
 Total Blocks : 262144 Invalid Blocks : 9
Heartbeat CPU 5 instructions: 40000001 cycles: 30545575 heartbeat IPC: 1.30739 cumulative IPC: 1.30952 (Simulation time: 1 hr 7 min 50 sec) 
 Total Blocks : 262144 Invalid Blocks : 9
Heartbeat CPU 4 instructions: 40000001 cycles: 30545594 heartbeat IPC: 1.30739 cumulative IPC: 1.30952 (Simulation time: 1 hr 7 min 50 sec) 
 Total Blocks : 262144 Invalid Blocks : 9
Heartbeat CPU 3 instructions: 50000000 cycles: 38165899 heartbeat IPC: 1.31222 cumulative IPC: 1.31007 (Simulation time: 1 hr 20 min 14 sec) 
 Total Blocks : 262144 Invalid Blocks : 1
Heartbeat CPU 6 instructions: 50000000 cycles: 38165974 heartbeat IPC: 1.31224 cumulative IPC: 1.31007 (Simulation time: 1 hr 20 min 14 sec) 
 Total Blocks : 262144 Invalid Blocks : 1
Heartbeat CPU 0 instructions: 50000000 cycles: 38166024 heartbeat IPC: 1.31223 cumulative IPC: 1.31007 (Simulation time: 1 hr 20 min 14 sec) 
 Total Blocks : 262144 Invalid Blocks : 1
Heartbeat CPU 1 instructions: 50000000 cycles: 38166036 heartbeat IPC: 1.31223 cumulative IPC: 1.31007 (Simulation time: 1 hr 20 min 14 sec) 
 Total Blocks : 262144 Invalid Blocks : 1
Heartbeat CPU 2 instructions: 50000000 cycles: 38166038 heartbeat IPC: 1.31221 cumulative IPC: 1.31007 (Simulation time: 1 hr 20 min 14 sec) 
 Total Blocks : 262144 Invalid Blocks : 1
Heartbeat CPU 7 instructions: 50000000 cycles: 38166054 heartbeat IPC: 1.31224 cumulative IPC: 1.31006 (Simulation time: 1 hr 20 min 14 sec) 
 Total Blocks : 262144 Invalid Blocks : 1
Heartbeat CPU 4 instructions: 50000000 cycles: 38166202 heartbeat IPC: 1.31223 cumulative IPC: 1.31006 (Simulation time: 1 hr 20 min 14 sec) 
 Total Blocks : 262144 Invalid Blocks : 1
Heartbeat CPU 5 instructions: 50000000 cycles: 38166245 heartbeat IPC: 1.31222 cumulative IPC: 1.31006 (Simulation time: 1 hr 20 min 14 sec) 
 Total Blocks : 262144 Invalid Blocks : 1
Heartbeat CPU 3 instructions: 60000000 cycles: 45793473 heartbeat IPC: 1.31103 cumulative IPC: 1.31023 (Simulation time: 1 hr 32 min 53 sec) 
 Total Blocks : 262144 Invalid Blocks : 0
Heartbeat CPU 6 instructions: 60000000 cycles: 45793492 heartbeat IPC: 1.31104 cumulative IPC: 1.31023 (Simulation time: 1 hr 32 min 53 sec) 
 Total Blocks : 262144 Invalid Blocks : 0
Heartbeat CPU 0 instructions: 60000000 cycles: 45793588 heartbeat IPC: 1.31103 cumulative IPC: 1.31023 (Simulation time: 1 hr 32 min 53 sec) 
 Total Blocks : 262144 Invalid Blocks : 0
Heartbeat CPU 1 instructions: 60000000 cycles: 45793622 heartbeat IPC: 1.31103 cumulative IPC: 1.31023 (Simulation time: 1 hr 32 min 53 sec) 
 Total Blocks : 262144 Invalid Blocks : 0
Heartbeat CPU 2 instructions: 60000000 cycles: 45793628 heartbeat IPC: 1.31103 cumulative IPC: 1.31023 (Simulation time: 1 hr 32 min 53 sec) 
 Total Blocks : 262144 Invalid Blocks : 0
Heartbeat CPU 7 instructions: 60000000 cycles: 45793638 heartbeat IPC: 1.31103 cumulative IPC: 1.31023 (Simulation time: 1 hr 32 min 53 sec) 
 Total Blocks : 262144 Invalid Blocks : 0
Heartbeat CPU 4 instructions: 60000000 cycles: 45793773 heartbeat IPC: 1.31103 cumulative IPC: 1.31022 (Simulation time: 1 hr 32 min 53 sec) 
 Total Blocks : 262144 Invalid Blocks : 0
Heartbeat CPU 5 instructions: 60000000 cycles: 45793837 heartbeat IPC: 1.31103 cumulative IPC: 1.31022 (Simulation time: 1 hr 32 min 53 sec) 
 Total Blocks : 262144 Invalid Blocks : 0
Heartbeat CPU 3 instructions: 70000001 cycles: 53461223 heartbeat IPC: 1.30416 cumulative IPC: 1.30936 (Simulation time: 1 hr 46 min 31 sec) 
 Total Blocks : 262144 Invalid Blocks : 0
Heartbeat CPU 6 instructions: 70000001 cycles: 53461452 heartbeat IPC: 1.30413 cumulative IPC: 1.30935 (Simulation time: 1 hr 46 min 31 sec) 
 Total Blocks : 262144 Invalid Blocks : 0
Heartbeat CPU 7 instructions: 70000001 cycles: 53461677 heartbeat IPC: 1.30411 cumulative IPC: 1.30935 (Simulation time: 1 hr 46 min 31 sec) 
 Total Blocks : 262144 Invalid Blocks : 0
Heartbeat CPU 1 instructions: 70000001 cycles: 53461711 heartbeat IPC: 1.30411 cumulative IPC: 1.30935 (Simulation time: 1 hr 46 min 31 sec) 
 Total Blocks : 262144 Invalid Blocks : 0
Heartbeat CPU 0 instructions: 70000001 cycles: 53461743 heartbeat IPC: 1.30409 cumulative IPC: 1.30935 (Simulation time: 1 hr 46 min 31 sec) 
 Total Blocks : 262144 Invalid Blocks : 0
Heartbeat CPU 5 instructions: 70000001 cycles: 53461828 heartbeat IPC: 1.30412 cumulative IPC: 1.30935 (Simulation time: 1 hr 46 min 31 sec) 
 Total Blocks : 262144 Invalid Blocks : 0
Heartbeat CPU 2 instructions: 70000001 cycles: 53461867 heartbeat IPC: 1.30408 cumulative IPC: 1.30934 (Simulation time: 1 hr 46 min 31 sec) 
 Total Blocks : 262144 Invalid Blocks : 0
Heartbeat CPU 4 instructions: 70000001 cycles: 53461875 heartbeat IPC: 1.3041 cumulative IPC: 1.30934 (Simulation time: 1 hr 46 min 31 sec) 
 Total Blocks : 262144 Invalid Blocks : 0
Heartbeat CPU 3 instructions: 80000003 cycles: 61093005 heartbeat IPC: 1.31031 cumulative IPC: 1.30948 (Simulation time: 2 hr 0 min 0 sec) 
 Total Blocks : 262144 Invalid Blocks : 0
Heartbeat CPU 6 instructions: 80000003 cycles: 61093091 heartbeat IPC: 1.31033 cumulative IPC: 1.30948 (Simulation time: 2 hr 0 min 0 sec) 
 Total Blocks : 262144 Invalid Blocks : 0
Heartbeat CPU 7 instructions: 80000003 cycles: 61093279 heartbeat IPC: 1.31034 cumulative IPC: 1.30947 (Simulation time: 2 hr 0 min 0 sec) 
 Total Blocks : 262144 Invalid Blocks : 0
Heartbeat CPU 1 instructions: 80000003 cycles: 61093390 heartbeat IPC: 1.31033 cumulative IPC: 1.30947 (Simulation time: 2 hr 0 min 0 sec) 
 Total Blocks : 262144 Invalid Blocks : 0
Heartbeat CPU 0 instructions: 80000003 cycles: 61093407 heartbeat IPC: 1.31033 cumulative IPC: 1.30947 (Simulation time: 2 hr 0 min 0 sec) 
 Total Blocks : 262144 Invalid Blocks : 0
Heartbeat CPU 4 instructions: 80000003 cycles: 61093551 heartbeat IPC: 1.31033 cumulative IPC: 1.30947 (Simulation time: 2 hr 0 min 0 sec) 
 Total Blocks : 262144 Invalid Blocks : 0
Heartbeat CPU 5 instructions: 80000003 cycles: 61093575 heartbeat IPC: 1.31032 cumulative IPC: 1.30947 (Simulation time: 2 hr 0 min 0 sec) 
 Total Blocks : 262144 Invalid Blocks : 0
Heartbeat CPU 2 instructions: 80000003 cycles: 61094092 heartbeat IPC: 1.31023 cumulative IPC: 1.30946 (Simulation time: 2 hr 0 min 0 sec) 
 Total Blocks : 262144 Invalid Blocks : 0
Heartbeat CPU 6 instructions: 90000001 cycles: 68736830 heartbeat IPC: 1.30826 cumulative IPC: 1.30934 (Simulation time: 2 hr 12 min 55 sec) 
 Total Blocks : 262144 Invalid Blocks : 0
Heartbeat CPU 3 instructions: 90000001 cycles: 68736840 heartbeat IPC: 1.30824 cumulative IPC: 1.30934 (Simulation time: 2 hr 12 min 55 sec) 
 Total Blocks : 262144 Invalid Blocks : 0
Heartbeat CPU 7 instructions: 90000001 cycles: 68737073 heartbeat IPC: 1.30825 cumulative IPC: 1.30934 (Simulation time: 2 hr 12 min 55 sec) 
 Total Blocks : 262144 Invalid Blocks : 0
Heartbeat CPU 1 instructions: 90000001 cycles: 68737295 heartbeat IPC: 1.30823 cumulative IPC: 1.30933 (Simulation time: 2 hr 12 min 55 sec) 
 Total Blocks : 262144 Invalid Blocks : 0
Heartbeat CPU 0 instructions: 90000001 cycles: 68737305 heartbeat IPC: 1.30823 cumulative IPC: 1.30933 (Simulation time: 2 hr 12 min 55 sec) 
 Total Blocks : 262144 Invalid Blocks : 0
Heartbeat CPU 5 instructions: 90000001 cycles: 68737363 heartbeat IPC: 1.30825 cumulative IPC: 1.30933 (Simulation time: 2 hr 12 min 55 sec) 
 Total Blocks : 262144 Invalid Blocks : 0
Heartbeat CPU 4 instructions: 90000001 cycles: 68737368 heartbeat IPC: 1.30825 cumulative IPC: 1.30933 (Simulation time: 2 hr 12 min 55 sec) 
 Total Blocks : 262144 Invalid Blocks : 0
Heartbeat CPU 2 instructions: 90000001 cycles: 68738202 heartbeat IPC: 1.3082 cumulative IPC: 1.30932 (Simulation time: 2 hr 12 min 55 sec) 
 Total Blocks : 262144 Invalid Blocks : 0
Heartbeat CPU 6 instructions: 100000003 cycles: 75840555 heartbeat IPC: 1.40771 cumulative IPC: 1.31856 (Simulation time: 2 hr 48 min 2 sec) 
 Total Blocks : 262144 Invalid Blocks : 0
Heartbeat CPU 3 instructions: 100000003 cycles: 75840556 heartbeat IPC: 1.40771 cumulative IPC: 1.31856 (Simulation time: 2 hr 48 min 2 sec) 
 Total Blocks : 262144 Invalid Blocks : 0
Heartbeat CPU 7 instructions: 100000003 cycles: 75841141 heartbeat IPC: 1.40764 cumulative IPC: 1.31855 (Simulation time: 2 hr 48 min 2 sec) 
 Total Blocks : 262144 Invalid Blocks : 0
Heartbeat CPU 0 instructions: 100000003 cycles: 75841145 heartbeat IPC: 1.40769 cumulative IPC: 1.31855 (Simulation time: 2 hr 48 min 2 sec) 
 Total Blocks : 262144 Invalid Blocks : 0
Heartbeat CPU 1 instructions: 100000003 cycles: 75841218 heartbeat IPC: 1.40767 cumulative IPC: 1.31854 (Simulation time: 2 hr 48 min 2 sec) 
 Total Blocks : 262144 Invalid Blocks : 0
Heartbeat CPU 5 instructions: 100000003 cycles: 75841389 heartbeat IPC: 1.40765 cumulative IPC: 1.31854 (Simulation time: 2 hr 48 min 2 sec) 
 Total Blocks : 262144 Invalid Blocks : 0
Heartbeat CPU 4 instructions: 100000003 cycles: 75841493 heartbeat IPC: 1.40763 cumulative IPC: 1.31854 (Simulation time: 2 hr 48 min 2 sec) 
 Total Blocks : 262144 Invalid Blocks : 0
Heartbeat CPU 2 instructions: 100000003 cycles: 75842334 heartbeat IPC: 1.40763 cumulative IPC: 1.31852 (Simulation time: 2 hr 48 min 2 sec) 
 Total Blocks : 262144 Invalid Blocks : 0
Heartbeat CPU 6 instructions: 110000000 cycles: 83456373 heartbeat IPC: 1.31306 cumulative IPC: 1.31805 (Simulation time: 3 hr 1 min 11 sec) 
 Total Blocks : 262144 Invalid Blocks : 0
Heartbeat CPU 3 instructions: 110000000 cycles: 83456510 heartbeat IPC: 1.31303 cumulative IPC: 1.31805 (Simulation time: 3 hr 1 min 11 sec) 
 Total Blocks : 262144 Invalid Blocks : 0
Heartbeat CPU 7 instructions: 110000000 cycles: 83456944 heartbeat IPC: 1.31306 cumulative IPC: 1.31804 (Simulation time: 3 hr 1 min 11 sec) 
 Total Blocks : 262144 Invalid Blocks : 0
Heartbeat CPU 0 instructions: 110000000 cycles: 83456991 heartbeat IPC: 1.31305 cumulative IPC: 1.31804 (Simulation time: 3 hr 1 min 11 sec) 
 Total Blocks : 262144 Invalid Blocks : 0
Heartbeat CPU 1 instructions: 110000000 cycles: 83457081 heartbeat IPC: 1.31305 cumulative IPC: 1.31804 (Simulation time: 3 hr 1 min 11 sec) 
 Total Blocks : 262144 Invalid Blocks : 0
Heartbeat CPU 5 instructions: 110000000 cycles: 83457196 heartbeat IPC: 1.31306 cumulative IPC: 1.31804 (Simulation time: 3 hr 1 min 11 sec) 
 Total Blocks : 262144 Invalid Blocks : 0
Heartbeat CPU 4 instructions: 110000000 cycles: 83457323 heartbeat IPC: 1.31305 cumulative IPC: 1.31804 (Simulation time: 3 hr 1 min 11 sec) 
 Total Blocks : 262144 Invalid Blocks : 0
Heartbeat CPU 2 instructions: 110000000 cycles: 83458274 heartbeat IPC: 1.31304 cumulative IPC: 1.31802 (Simulation time: 3 hr 1 min 11 sec) 
 Total Blocks : 262144 Invalid Blocks : 0
Heartbeat CPU 6 instructions: 120000000 cycles: 91092805 heartbeat IPC: 1.30951 cumulative IPC: 1.31734 (Simulation time: 3 hr 14 min 2 sec) 
 Total Blocks : 262144 Invalid Blocks : 0
Heartbeat CPU 3 instructions: 120000000 cycles: 91093019 heartbeat IPC: 1.3095 cumulative IPC: 1.31733 (Simulation time: 3 hr 14 min 2 sec) 
 Total Blocks : 262144 Invalid Blocks : 0
Heartbeat CPU 7 instructions: 120000000 cycles: 91093406 heartbeat IPC: 1.30951 cumulative IPC: 1.31733 (Simulation time: 3 hr 14 min 2 sec) 
 Total Blocks : 262144 Invalid Blocks : 0
Heartbeat CPU 0 instructions: 120000000 cycles: 91093519 heartbeat IPC: 1.3095 cumulative IPC: 1.31733 (Simulation time: 3 hr 14 min 2 sec) 
 Total Blocks : 262144 Invalid Blocks : 0
Heartbeat CPU 1 instructions: 120000000 cycles: 91093619 heartbeat IPC: 1.30949 cumulative IPC: 1.31733 (Simulation time: 3 hr 14 min 2 sec) 
 Total Blocks : 262144 Invalid Blocks : 0
Heartbeat CPU 5 instructions: 120000000 cycles: 91093668 heartbeat IPC: 1.30951 cumulative IPC: 1.31733 (Simulation time: 3 hr 14 min 2 sec) 
 Total Blocks : 262144 Invalid Blocks : 0
Heartbeat CPU 4 instructions: 120000000 cycles: 91093758 heartbeat IPC: 1.30951 cumulative IPC: 1.31732 (Simulation time: 3 hr 14 min 2 sec) 
 Total Blocks : 262144 Invalid Blocks : 0
Heartbeat CPU 2 instructions: 120000000 cycles: 91094776 heartbeat IPC: 1.3095 cumulative IPC: 1.31731 (Simulation time: 3 hr 14 min 2 sec) 
 Total Blocks : 262144 Invalid Blocks : 0
Heartbeat CPU 6 instructions: 130000000 cycles: 98817542 heartbeat IPC: 1.29454 cumulative IPC: 1.31556 (Simulation time: 3 hr 33 min 30 sec) 
 Total Blocks : 262144 Invalid Blocks : 0
Heartbeat CPU 7 instructions: 130000000 cycles: 98818212 heartbeat IPC: 1.29453 cumulative IPC: 1.31555 (Simulation time: 3 hr 33 min 30 sec) 
 Total Blocks : 262144 Invalid Blocks : 0
Heartbeat CPU 0 instructions: 130000000 cycles: 98818407 heartbeat IPC: 1.29452 cumulative IPC: 1.31554 (Simulation time: 3 hr 33 min 30 sec) 
 Total Blocks : 262144 Invalid Blocks : 0
Heartbeat CPU 1 instructions: 130000000 cycles: 98818414 heartbeat IPC: 1.29453 cumulative IPC: 1.31554 (Simulation time: 3 hr 33 min 30 sec) 
 Total Blocks : 262144 Invalid Blocks : 0
Heartbeat CPU 4 instructions: 130000000 cycles: 98818949 heartbeat IPC: 1.29447 cumulative IPC: 1.31554 (Simulation time: 3 hr 33 min 30 sec) 
 Total Blocks : 262144 Invalid Blocks : 0
Heartbeat CPU 2 instructions: 130000000 cycles: 98819319 heartbeat IPC: 1.29457 cumulative IPC: 1.31553 (Simulation time: 3 hr 33 min 30 sec) 
 Total Blocks : 262144 Invalid Blocks : 0
Heartbeat CPU 5 instructions: 130000000 cycles: 98821352 heartbeat IPC: 1.29405 cumulative IPC: 1.31551 (Simulation time: 3 hr 33 min 30 sec) 
 Total Blocks : 262144 Invalid Blocks : 0
Heartbeat CPU 3 instructions: 130000000 cycles: 98821985 heartbeat IPC: 1.29383 cumulative IPC: 1.3155 (Simulation time: 3 hr 33 min 30 sec) 
 Total Blocks : 262144 Invalid Blocks : 0
Heartbeat CPU 6 instructions: 140000000 cycles: 106461472 heartbeat IPC: 1.30823 cumulative IPC: 1.31503 (Simulation time: 3 hr 46 min 55 sec) 
 Total Blocks : 262144 Invalid Blocks : 0
Heartbeat CPU 7 instructions: 140000000 cycles: 106462080 heartbeat IPC: 1.30824 cumulative IPC: 1.31502 (Simulation time: 3 hr 46 min 55 sec) 
 Total Blocks : 262144 Invalid Blocks : 0
Heartbeat CPU 1 instructions: 140000000 cycles: 106462639 heartbeat IPC: 1.30818 cumulative IPC: 1.31502 (Simulation time: 3 hr 46 min 55 sec) 
 Total Blocks : 262144 Invalid Blocks : 0
Heartbeat CPU 0 instructions: 140000000 cycles: 106462794 heartbeat IPC: 1.30815 cumulative IPC: 1.31501 (Simulation time: 3 hr 46 min 55 sec) 
 Total Blocks : 262144 Invalid Blocks : 0
Heartbeat CPU 4 instructions: 140000000 cycles: 106462975 heartbeat IPC: 1.30821 cumulative IPC: 1.31501 (Simulation time: 3 hr 46 min 55 sec) 
 Total Blocks : 262144 Invalid Blocks : 0
Heartbeat CPU 2 instructions: 140000000 cycles: 106463069 heartbeat IPC: 1.30826 cumulative IPC: 1.31501 (Simulation time: 3 hr 46 min 55 sec) 
 Total Blocks : 262144 Invalid Blocks : 0
Heartbeat CPU 5 instructions: 140000000 cycles: 106465396 heartbeat IPC: 1.30821 cumulative IPC: 1.31498 (Simulation time: 3 hr 46 min 55 sec) 
 Total Blocks : 262144 Invalid Blocks : 0
Heartbeat CPU 3 instructions: 140000000 cycles: 106466011 heartbeat IPC: 1.30821 cumulative IPC: 1.31497 (Simulation time: 3 hr 46 min 55 sec) 
 Total Blocks : 262144 Invalid Blocks : 0
Heartbeat CPU 6 instructions: 150000002 cycles: 114113732 heartbeat IPC: 1.3068 cumulative IPC: 1.31448 (Simulation time: 3 hr 59 min 43 sec) 
 Total Blocks : 262144 Invalid Blocks : 0
Heartbeat CPU 7 instructions: 150000002 cycles: 114114383 heartbeat IPC: 1.3068 cumulative IPC: 1.31447 (Simulation time: 3 hr 59 min 43 sec) 
 Total Blocks : 262144 Invalid Blocks : 0
Heartbeat CPU 2 instructions: 150000002 cycles: 114115382 heartbeat IPC: 1.30679 cumulative IPC: 1.31446 (Simulation time: 3 hr 59 min 43 sec) 
 Total Blocks : 262144 Invalid Blocks : 0
Heartbeat CPU 1 instructions: 150000002 cycles: 114115488 heartbeat IPC: 1.3067 cumulative IPC: 1.31446 (Simulation time: 3 hr 59 min 43 sec) 
 Total Blocks : 262144 Invalid Blocks : 0
Heartbeat CPU 4 instructions: 150000002 cycles: 114115521 heartbeat IPC: 1.30675 cumulative IPC: 1.31446 (Simulation time: 3 hr 59 min 43 sec) 
 Total Blocks : 262144 Invalid Blocks : 0
Heartbeat CPU 0 instructions: 150000002 cycles: 114115833 heartbeat IPC: 1.30667 cumulative IPC: 1.31445 (Simulation time: 3 hr 59 min 43 sec) 
 Total Blocks : 262144 Invalid Blocks : 0
Heartbeat CPU 5 instructions: 150000002 cycles: 114117805 heartbeat IPC: 1.30678 cumulative IPC: 1.31443 (Simulation time: 3 hr 59 min 44 sec) 
 Total Blocks : 262144 Invalid Blocks : 0
Heartbeat CPU 3 instructions: 150000002 cycles: 114118502 heartbeat IPC: 1.30676 cumulative IPC: 1.31442 (Simulation time: 3 hr 59 min 44 sec) 
 Total Blocks : 262144 Invalid Blocks : 0
Heartbeat CPU 6 instructions: 160000002 cycles: 121764788 heartbeat IPC: 1.30701 cumulative IPC: 1.31401 (Simulation time: 4 hr 13 min 3 sec) 
 Total Blocks : 262144 Invalid Blocks : 0
Heartbeat CPU 7 instructions: 160000002 cycles: 121765563 heartbeat IPC: 1.30699 cumulative IPC: 1.314 (Simulation time: 4 hr 13 min 4 sec) 
 Total Blocks : 262144 Invalid Blocks : 0
Heartbeat CPU 2 instructions: 160000002 cycles: 121766512 heartbeat IPC: 1.307 cumulative IPC: 1.31399 (Simulation time: 4 hr 13 min 4 sec) 
 Total Blocks : 262144 Invalid Blocks : 0
Heartbeat CPU 1 instructions: 160000002 cycles: 121767041 heartbeat IPC: 1.30692 cumulative IPC: 1.31398 (Simulation time: 4 hr 13 min 4 sec) 
 Total Blocks : 262144 Invalid Blocks : 0
Heartbeat CPU 4 instructions: 160000002 cycles: 121767386 heartbeat IPC: 1.30687 cumulative IPC: 1.31398 (Simulation time: 4 hr 13 min 4 sec) 
 Total Blocks : 262144 Invalid Blocks : 0
Heartbeat CPU 0 instructions: 160000002 cycles: 121767466 heartbeat IPC: 1.30691 cumulative IPC: 1.31398 (Simulation time: 4 hr 13 min 4 sec) 
 Total Blocks : 262144 Invalid Blocks : 0
Heartbeat CPU 5 instructions: 160000002 cycles: 121769177 heartbeat IPC: 1.30696 cumulative IPC: 1.31396 (Simulation time: 4 hr 13 min 4 sec) 
 Total Blocks : 262144 Invalid Blocks : 0
Heartbeat CPU 3 instructions: 160000002 cycles: 121769794 heartbeat IPC: 1.30697 cumulative IPC: 1.31395 (Simulation time: 4 hr 13 min 4 sec) 
 Total Blocks : 262144 Invalid Blocks : 0
Heartbeat CPU 6 instructions: 170000003 cycles: 129387919 heartbeat IPC: 1.3118 cumulative IPC: 1.31388 (Simulation time: 4 hr 25 min 11 sec) 
 Total Blocks : 262144 Invalid Blocks : 0
Heartbeat CPU 7 instructions: 170000003 cycles: 129388687 heartbeat IPC: 1.3118 cumulative IPC: 1.31387 (Simulation time: 4 hr 25 min 11 sec) 
 Total Blocks : 262144 Invalid Blocks : 0
Heartbeat CPU 2 instructions: 170000003 cycles: 129389808 heartbeat IPC: 1.31177 cumulative IPC: 1.31386 (Simulation time: 4 hr 25 min 11 sec) 
 Total Blocks : 262144 Invalid Blocks : 0
Heartbeat CPU 1 instructions: 170000003 cycles: 129390043 heartbeat IPC: 1.31182 cumulative IPC: 1.31386 (Simulation time: 4 hr 25 min 11 sec) 
 Total Blocks : 262144 Invalid Blocks : 0
Heartbeat CPU 4 instructions: 170000003 cycles: 129390553 heartbeat IPC: 1.31179 cumulative IPC: 1.31385 (Simulation time: 4 hr 25 min 11 sec) 
 Total Blocks : 262144 Invalid Blocks : 0
Heartbeat CPU 0 instructions: 170000003 cycles: 129390562 heartbeat IPC: 1.3118 cumulative IPC: 1.31385 (Simulation time: 4 hr 25 min 11 sec) 
 Total Blocks : 262144 Invalid Blocks : 0
Heartbeat CPU 5 instructions: 170000003 cycles: 129392313 heartbeat IPC: 1.3118 cumulative IPC: 1.31383 (Simulation time: 4 hr 25 min 11 sec) 
 Total Blocks : 262144 Invalid Blocks : 0
Heartbeat CPU 3 instructions: 170000003 cycles: 129393086 heartbeat IPC: 1.31177 cumulative IPC: 1.31383 (Simulation time: 4 hr 25 min 11 sec) 
 Total Blocks : 262144 Invalid Blocks : 0
Heartbeat CPU 6 instructions: 180000000 cycles: 137031241 heartbeat IPC: 1.30833 cumulative IPC: 1.31357 (Simulation time: 4 hr 37 min 46 sec) 
 Total Blocks : 262144 Invalid Blocks : 0
Heartbeat CPU 7 instructions: 180000000 cycles: 137032094 heartbeat IPC: 1.30832 cumulative IPC: 1.31356 (Simulation time: 4 hr 37 min 46 sec) 
 Total Blocks : 262144 Invalid Blocks : 0
Heartbeat CPU 1 instructions: 180000000 cycles: 137033217 heartbeat IPC: 1.30836 cumulative IPC: 1.31355 (Simulation time: 4 hr 37 min 46 sec) 
 Total Blocks : 262144 Invalid Blocks : 0
Heartbeat CPU 2 instructions: 180000000 cycles: 137033325 heartbeat IPC: 1.3083 cumulative IPC: 1.31355 (Simulation time: 4 hr 37 min 46 sec) 
 Total Blocks : 262144 Invalid Blocks : 0
Heartbeat CPU 0 instructions: 180000000 cycles: 137033848 heartbeat IPC: 1.30834 cumulative IPC: 1.31354 (Simulation time: 4 hr 37 min 46 sec) 
 Total Blocks : 262144 Invalid Blocks : 0
Heartbeat CPU 4 instructions: 180000000 cycles: 137033993 heartbeat IPC: 1.30831 cumulative IPC: 1.31354 (Simulation time: 4 hr 37 min 46 sec) 
 Total Blocks : 262144 Invalid Blocks : 0
Heartbeat CPU 5 instructions: 180000000 cycles: 137035732 heartbeat IPC: 1.30831 cumulative IPC: 1.31353 (Simulation time: 4 hr 37 min 46 sec) 
 Total Blocks : 262144 Invalid Blocks : 0
Heartbeat CPU 3 instructions: 180000000 cycles: 137036616 heartbeat IPC: 1.3083 cumulative IPC: 1.31352 (Simulation time: 4 hr 37 min 46 sec) 
 Total Blocks : 262144 Invalid Blocks : 0
Heartbeat CPU 6 instructions: 190000000 cycles: 146586157 heartbeat IPC: 1.04658 cumulative IPC: 1.29617 (Simulation time: 4 hr 51 min 36 sec) 
 Total Blocks : 262144 Invalid Blocks : 0
Heartbeat CPU 7 instructions: 190000000 cycles: 146586994 heartbeat IPC: 1.04658 cumulative IPC: 1.29616 (Simulation time: 4 hr 51 min 36 sec) 
 Total Blocks : 262144 Invalid Blocks : 0
Heartbeat CPU 4 instructions: 190000000 cycles: 146589036 heartbeat IPC: 1.04657 cumulative IPC: 1.29614 (Simulation time: 4 hr 51 min 36 sec) 
 Total Blocks : 262144 Invalid Blocks : 0
Heartbeat CPU 1 instructions: 190000000 cycles: 146589416 heartbeat IPC: 1.04644 cumulative IPC: 1.29614 (Simulation time: 4 hr 51 min 36 sec) 
 Total Blocks : 262144 Invalid Blocks : 0
Heartbeat CPU 2 instructions: 190000000 cycles: 146589795 heartbeat IPC: 1.04641 cumulative IPC: 1.29613 (Simulation time: 4 hr 51 min 36 sec) 
 Total Blocks : 262144 Invalid Blocks : 0
Heartbeat CPU 0 instructions: 190000000 cycles: 146589989 heartbeat IPC: 1.04645 cumulative IPC: 1.29613 (Simulation time: 4 hr 51 min 36 sec) 
 Total Blocks : 262144 Invalid Blocks : 0
Heartbeat CPU 5 instructions: 190000000 cycles: 146590704 heartbeat IPC: 1.04658 cumulative IPC: 1.29613 (Simulation time: 4 hr 51 min 36 sec) 
 Total Blocks : 262144 Invalid Blocks : 0
Heartbeat CPU 3 instructions: 190000000 cycles: 146593086 heartbeat IPC: 1.04641 cumulative IPC: 1.2961 (Simulation time: 4 hr 51 min 36 sec) 
 Total Blocks : 262144 Invalid Blocks : 0
Heartbeat CPU 6 instructions: 200000000 cycles: 154841691 heartbeat IPC: 1.21131 cumulative IPC: 1.29164 (Simulation time: 5 hr 5 min 40 sec) 
 Total Blocks : 262144 Invalid Blocks : 0
Heartbeat CPU 7 instructions: 200000000 cycles: 154842796 heartbeat IPC: 1.21127 cumulative IPC: 1.29163 (Simulation time: 5 hr 5 min 40 sec) 
 Total Blocks : 262144 Invalid Blocks : 0
Heartbeat CPU 4 instructions: 200000000 cycles: 154844884 heartbeat IPC: 1.21126 cumulative IPC: 1.29162 (Simulation time: 5 hr 5 min 41 sec) 
 Total Blocks : 262144 Invalid Blocks : 0
Heartbeat CPU 1 instructions: 200000000 cycles: 154845746 heartbeat IPC: 1.21119 cumulative IPC: 1.29161 (Simulation time: 5 hr 5 min 41 sec) 
 Total Blocks : 262144 Invalid Blocks : 0
Heartbeat CPU 2 instructions: 200000000 cycles: 154846083 heartbeat IPC: 1.2112 cumulative IPC: 1.29161 (Simulation time: 5 hr 5 min 41 sec) 
 Total Blocks : 262144 Invalid Blocks : 0
Heartbeat CPU 0 instructions: 200000000 cycles: 154846242 heartbeat IPC: 1.2112 cumulative IPC: 1.2916 (Simulation time: 5 hr 5 min 41 sec) 
 Total Blocks : 262144 Invalid Blocks : 0
Heartbeat CPU 5 instructions: 200000000 cycles: 154846596 heartbeat IPC: 1.21126 cumulative IPC: 1.2916 (Simulation time: 5 hr 5 min 41 sec) 
 Total Blocks : 262144 Invalid Blocks : 0
Heartbeat CPU 3 instructions: 200000000 cycles: 154849439 heartbeat IPC: 1.21119 cumulative IPC: 1.29158 (Simulation time: 5 hr 5 min 41 sec) 
 Total Blocks : 262144 Invalid Blocks : 0

Warmup complete CPU 0 instructions: 200004221 cycles: 154849440 (Simulation time: 5 hr 5 min 41 sec) 
Warmup complete CPU 1 instructions: 200004865 cycles: 154849440 (Simulation time: 5 hr 5 min 41 sec) 
Warmup complete CPU 2 instructions: 200004409 cycles: 154849440 (Simulation time: 5 hr 5 min 41 sec) 
Warmup complete CPU 3 instructions: 200000004 cycles: 154849440 (Simulation time: 5 hr 5 min 41 sec) 
Warmup complete CPU 4 instructions: 200005793 cycles: 154849439 (Simulation time: 5 hr 5 min 41 sec) 
Warmup complete CPU 5 instructions: 200003746 cycles: 154849439 (Simulation time: 5 hr 5 min 41 sec) 
Warmup complete CPU 6 instructions: 200009968 cycles: 154849439 (Simulation time: 5 hr 5 min 41 sec) 
Warmup complete CPU 7 instructions: 200008532 cycles: 154849439 (Simulation time: 5 hr 5 min 41 sec) 

Heartbeat CPU 7 instructions: 210000003 cycles: 179826966 heartbeat IPC: 0.400254 cumulative IPC: 0.400018 (Simulation time: 5 hr 30 min 1 sec) 
 Total Blocks : 262144 Invalid Blocks : 0
Heartbeat CPU 1 instructions: 210000003 cycles: 179834925 heartbeat IPC: 0.400173 cumulative IPC: 0.400038 (Simulation time: 5 hr 30 min 2 sec) 
 Total Blocks : 262144 Invalid Blocks : 0
Heartbeat CPU 0 instructions: 210000003 cycles: 179835027 heartbeat IPC: 0.40018 cumulative IPC: 0.400062 (Simulation time: 5 hr 30 min 2 sec) 
 Total Blocks : 262144 Invalid Blocks : 0
Heartbeat CPU 2 instructions: 210000003 cycles: 179835129 heartbeat IPC: 0.400175 cumulative IPC: 0.400053 (Simulation time: 5 hr 30 min 2 sec) 
 Total Blocks : 262144 Invalid Blocks : 0
Heartbeat CPU 5 instructions: 210000003 cycles: 179838142 heartbeat IPC: 0.400135 cumulative IPC: 0.400031 (Simulation time: 5 hr 30 min 2 sec) 
 Total Blocks : 262144 Invalid Blocks : 0
Heartbeat CPU 6 instructions: 210000003 cycles: 179848038 heartbeat IPC: 0.399899 cumulative IPC: 0.399624 (Simulation time: 5 hr 30 min 3 sec) 
 Total Blocks : 262144 Invalid Blocks : 0
Heartbeat CPU 4 instructions: 210000003 cycles: 179856749 heartbeat IPC: 0.39981 cumulative IPC: 0.399652 (Simulation time: 5 hr 30 min 3 sec) 
 Total Blocks : 262144 Invalid Blocks : 0
Heartbeat CPU 3 instructions: 210000003 cycles: 179901077 heartbeat IPC: 0.399176 cumulative IPC: 0.399175 (Simulation time: 5 hr 30 min 6 sec) 
 Total Blocks : 262144 Invalid Blocks : 0
Heartbeat CPU 1 instructions: 220000000 cycles: 205240409 heartbeat IPC: 0.393616 cumulative IPC: 0.3968 (Simulation time: 5 hr 55 min 6 sec) 
 Total Blocks : 262144 Invalid Blocks : 0
Heartbeat CPU 7 instructions: 220000000 cycles: 205243000 heartbeat IPC: 0.393452 cumulative IPC: 0.396707 (Simulation time: 5 hr 55 min 6 sec) 
 Total Blocks : 262144 Invalid Blocks : 0
Heartbeat CPU 2 instructions: 220000000 cycles: 205243947 heartbeat IPC: 0.393564 cumulative IPC: 0.396781 (Simulation time: 5 hr 55 min 6 sec) 
 Total Blocks : 262144 Invalid Blocks : 0
Heartbeat CPU 0 instructions: 220000000 cycles: 205244049 heartbeat IPC: 0.393561 cumulative IPC: 0.396784 (Simulation time: 5 hr 55 min 6 sec) 
 Total Blocks : 262144 Invalid Blocks : 0
Heartbeat CPU 5 instructions: 220000000 cycles: 205244867 heartbeat IPC: 0.393596 cumulative IPC: 0.396787 (Simulation time: 5 hr 55 min 6 sec) 
 Total Blocks : 262144 Invalid Blocks : 0
Heartbeat CPU 6 instructions: 220000000 cycles: 205261997 heartbeat IPC: 0.393484 cumulative IPC: 0.396529 (Simulation time: 5 hr 55 min 7 sec) 
 Total Blocks : 262144 Invalid Blocks : 0
Heartbeat CPU 4 instructions: 220000000 cycles: 205270781 heartbeat IPC: 0.393483 cumulative IPC: 0.396543 (Simulation time: 5 hr 55 min 8 sec) 
 Total Blocks : 262144 Invalid Blocks : 0
Heartbeat CPU 3 instructions: 220000000 cycles: 205327950 heartbeat IPC: 0.393285 cumulative IPC: 0.396208 (Simulation time: 5 hr 55 min 11 sec) 
 Total Blocks : 262144 Invalid Blocks : 0
Heartbeat CPU 1 instructions: 230000001 cycles: 230278512 heartbeat IPC: 0.399391 cumulative IPC: 0.39766 (Simulation time: 6 hr 19 min 29 sec) 
 Total Blocks : 262144 Invalid Blocks : 0
Heartbeat CPU 0 instructions: 230000001 cycles: 230278620 heartbeat IPC: 0.399448 cumulative IPC: 0.397668 (Simulation time: 6 hr 19 min 29 sec) 
 Total Blocks : 262144 Invalid Blocks : 0
Heartbeat CPU 5 instructions: 230000001 cycles: 230278822 heartbeat IPC: 0.399457 cumulative IPC: 0.397673 (Simulation time: 6 hr 19 min 29 sec) 
 Total Blocks : 262144 Invalid Blocks : 0
Heartbeat CPU 2 instructions: 230000001 cycles: 230279228 heartbeat IPC: 0.399436 cumulative IPC: 0.397662 (Simulation time: 6 hr 19 min 29 sec) 
 Total Blocks : 262144 Invalid Blocks : 0
Heartbeat CPU 7 instructions: 230000001 cycles: 230279448 heartbeat IPC: 0.399418 cumulative IPC: 0.397607 (Simulation time: 6 hr 19 min 29 sec) 
 Total Blocks : 262144 Invalid Blocks : 0
Heartbeat CPU 6 instructions: 230000001 cycles: 230299435 heartbeat IPC: 0.399402 cumulative IPC: 0.397482 (Simulation time: 6 hr 19 min 30 sec) 
 Total Blocks : 262144 Invalid Blocks : 0
Heartbeat CPU 4 instructions: 230000001 cycles: 230299639 heartbeat IPC: 0.399539 cumulative IPC: 0.397536 (Simulation time: 6 hr 19 min 30 sec) 
 Total Blocks : 262144 Invalid Blocks : 0
Heartbeat CPU 3 instructions: 230000001 cycles: 230408866 heartbeat IPC: 0.39871 cumulative IPC: 0.397038 (Simulation time: 6 hr 19 min 37 sec) 
 Total Blocks : 262144 Invalid Blocks : 0
Heartbeat CPU 5 instructions: 240000000 cycles: 255465784 heartbeat IPC: 0.397031 cumulative IPC: 0.397512 (Simulation time: 6 hr 43 min 20 sec) 
 Total Blocks : 262144 Invalid Blocks : 0
Heartbeat CPU 0 instructions: 240000000 cycles: 255466245 heartbeat IPC: 0.39702 cumulative IPC: 0.397506 (Simulation time: 6 hr 43 min 20 sec) 
 Total Blocks : 262144 Invalid Blocks : 0
Heartbeat CPU 1 instructions: 240000000 cycles: 255466347 heartbeat IPC: 0.397017 cumulative IPC: 0.397499 (Simulation time: 6 hr 43 min 20 sec) 
 Total Blocks : 262144 Invalid Blocks : 0
Heartbeat CPU 2 instructions: 240000000 cycles: 255466449 heartbeat IPC: 0.397027 cumulative IPC: 0.397503 (Simulation time: 6 hr 43 min 20 sec) 
 Total Blocks : 262144 Invalid Blocks : 0
Heartbeat CPU 7 instructions: 240000000 cycles: 255467316 heartbeat IPC: 0.397016 cumulative IPC: 0.397459 (Simulation time: 6 hr 43 min 20 sec) 
 Total Blocks : 262144 Invalid Blocks : 0
Heartbeat CPU 4 instructions: 240000000 cycles: 255489260 heartbeat IPC: 0.396989 cumulative IPC: 0.397399 (Simulation time: 6 hr 43 min 21 sec) 
 Total Blocks : 262144 Invalid Blocks : 0
Heartbeat CPU 6 instructions: 240000000 cycles: 255489364 heartbeat IPC: 0.396984 cumulative IPC: 0.397358 (Simulation time: 6 hr 43 min 21 sec) 
 Total Blocks : 262144 Invalid Blocks : 0
Heartbeat CPU 3 instructions: 240000000 cycles: 255620423 heartbeat IPC: 0.396643 cumulative IPC: 0.39694 (Simulation time: 6 hr 43 min 29 sec) 
 Total Blocks : 262144 Invalid Blocks : 0
Heartbeat CPU 5 instructions: 250000001 cycles: 281368249 heartbeat IPC: 0.386064 cumulative IPC: 0.395169 (Simulation time: 7 hr 8 min 40 sec) 
 Total Blocks : 262144 Invalid Blocks : 0
Heartbeat CPU 1 instructions: 250000001 cycles: 281368451 heartbeat IPC: 0.386069 cumulative IPC: 0.395159 (Simulation time: 7 hr 8 min 40 sec) 
 Total Blocks : 262144 Invalid Blocks : 0
Heartbeat CPU 0 instructions: 250000001 cycles: 281368553 heartbeat IPC: 0.386066 cumulative IPC: 0.395164 (Simulation time: 7 hr 8 min 40 sec) 
 Total Blocks : 262144 Invalid Blocks : 0
Heartbeat CPU 2 instructions: 250000001 cycles: 281368956 heartbeat IPC: 0.386063 cumulative IPC: 0.395161 (Simulation time: 7 hr 8 min 40 sec) 
 Total Blocks : 262144 Invalid Blocks : 0
Heartbeat CPU 7 instructions: 250000001 cycles: 281369162 heartbeat IPC: 0.386073 cumulative IPC: 0.395128 (Simulation time: 7 hr 8 min 40 sec) 
 Total Blocks : 262144 Invalid Blocks : 0
Heartbeat CPU 6 instructions: 250000001 cycles: 281388892 heartbeat IPC: 0.386107 cumulative IPC: 0.395055 (Simulation time: 7 hr 8 min 41 sec) 
 Total Blocks : 262144 Invalid Blocks : 0
Heartbeat CPU 4 instructions: 250000001 cycles: 281389045 heartbeat IPC: 0.386104 cumulative IPC: 0.395087 (Simulation time: 7 hr 8 min 41 sec) 
 Total Blocks : 262144 Invalid Blocks : 0
Heartbeat CPU 3 instructions: 250000001 cycles: 281534143 heartbeat IPC: 0.385896 cumulative IPC: 0.394681 (Simulation time: 7 hr 8 min 51 sec) 
 Total Blocks : 262144 Invalid Blocks : 0
Heartbeat CPU 1 instructions: 260000003 cycles: 306459574 heartbeat IPC: 0.398547 cumulative IPC: 0.39572 (Simulation time: 7 hr 34 min 27 sec) 
 Total Blocks : 262144 Invalid Blocks : 0
Heartbeat CPU 0 instructions: 260000003 cycles: 306459678 heartbeat IPC: 0.398547 cumulative IPC: 0.395724 (Simulation time: 7 hr 34 min 27 sec) 
 Total Blocks : 262144 Invalid Blocks : 0
Heartbeat CPU 2 instructions: 260000003 cycles: 306459780 heartbeat IPC: 0.398552 cumulative IPC: 0.395722 (Simulation time: 7 hr 34 min 27 sec) 
 Total Blocks : 262144 Invalid Blocks : 0
Heartbeat CPU 5 instructions: 260000003 cycles: 306460035 heartbeat IPC: 0.398537 cumulative IPC: 0.395726 (Simulation time: 7 hr 34 min 27 sec) 
 Total Blocks : 262144 Invalid Blocks : 0
Heartbeat CPU 7 instructions: 260000003 cycles: 306460188 heartbeat IPC: 0.398549 cumulative IPC: 0.395694 (Simulation time: 7 hr 34 min 27 sec) 
 Total Blocks : 262144 Invalid Blocks : 0
Heartbeat CPU 6 instructions: 260000003 cycles: 306480004 heartbeat IPC: 0.398548 cumulative IPC: 0.395633 (Simulation time: 7 hr 34 min 29 sec) 
 Total Blocks : 262144 Invalid Blocks : 0
Heartbeat CPU 4 instructions: 260000003 cycles: 306480208 heartbeat IPC: 0.398547 cumulative IPC: 0.39566 (Simulation time: 7 hr 34 min 29 sec) 
 Total Blocks : 262144 Invalid Blocks : 0
Heartbeat CPU 3 instructions: 260000003 cycles: 306666131 heartbeat IPC: 0.397899 cumulative IPC: 0.395213 (Simulation time: 7 hr 34 min 41 sec) 
 Total Blocks : 262144 Invalid Blocks : 0
Heartbeat CPU 7 instructions: 270000000 cycles: 331354662 heartbeat IPC: 0.401695 cumulative IPC: 0.39654 (Simulation time: 8 hr 1 min 55 sec) 
 Total Blocks : 262144 Invalid Blocks : 0
Heartbeat CPU 6 instructions: 270000000 cycles: 331362220 heartbeat IPC: 0.401893 cumulative IPC: 0.396515 (Simulation time: 8 hr 1 min 56 sec) 
 Total Blocks : 262144 Invalid Blocks : 0
Heartbeat CPU 5 instructions: 270000000 cycles: 331362322 heartbeat IPC: 0.401569 cumulative IPC: 0.39655 (Simulation time: 8 hr 1 min 56 sec) 
 Total Blocks : 262144 Invalid Blocks : 0
Heartbeat CPU 0 instructions: 270000000 cycles: 331362424 heartbeat IPC: 0.401562 cumulative IPC: 0.396547 (Simulation time: 8 hr 1 min 56 sec) 
 Total Blocks : 262144 Invalid Blocks : 0
Heartbeat CPU 2 instructions: 270000000 cycles: 331362885 heartbeat IPC: 0.401556 cumulative IPC: 0.396545 (Simulation time: 8 hr 1 min 56 sec) 
 Total Blocks : 262144 Invalid Blocks : 0
Heartbeat CPU 1 instructions: 270000000 cycles: 331383988 heartbeat IPC: 0.401213 cumulative IPC: 0.396495 (Simulation time: 8 hr 1 min 57 sec) 
 Total Blocks : 262144 Invalid Blocks : 0
Heartbeat CPU 4 instructions: 270000000 cycles: 331391587 heartbeat IPC: 0.401423 cumulative IPC: 0.396473 (Simulation time: 8 hr 1 min 57 sec) 
 Total Blocks : 262144 Invalid Blocks : 0
Heartbeat CPU 3 instructions: 270000000 cycles: 331605111 heartbeat IPC: 0.400979 cumulative IPC: 0.396027 (Simulation time: 8 hr 2 min 9 sec) 
 Total Blocks : 262144 Invalid Blocks : 0
Heartbeat CPU 7 instructions: 280000000 cycles: 356340647 heartbeat IPC: 0.400224 cumulative IPC: 0.396997 (Simulation time: 8 hr 27 min 11 sec) 
 Total Blocks : 262144 Invalid Blocks : 0
Heartbeat CPU 0 instructions: 280000000 cycles: 356348911 heartbeat IPC: 0.400216 cumulative IPC: 0.397002 (Simulation time: 8 hr 27 min 11 sec) 
 Total Blocks : 262144 Invalid Blocks : 0
Heartbeat CPU 5 instructions: 280000000 cycles: 356349250 heartbeat IPC: 0.400209 cumulative IPC: 0.397004 (Simulation time: 8 hr 27 min 11 sec) 
 Total Blocks : 262144 Invalid Blocks : 0
Heartbeat CPU 6 instructions: 280000000 cycles: 356350156 heartbeat IPC: 0.400193 cumulative IPC: 0.396971 (Simulation time: 8 hr 27 min 11 sec) 
 Total Blocks : 262144 Invalid Blocks : 0
Heartbeat CPU 2 instructions: 280000000 cycles: 356350823 heartbeat IPC: 0.400193 cumulative IPC: 0.396998 (Simulation time: 8 hr 27 min 11 sec) 
 Total Blocks : 262144 Invalid Blocks : 0
Heartbeat CPU 4 instructions: 280000000 cycles: 356378724 heartbeat IPC: 0.400206 cumulative IPC: 0.396936 (Simulation time: 8 hr 27 min 13 sec) 
 Total Blocks : 262144 Invalid Blocks : 0
Heartbeat CPU 1 instructions: 280000000 cycles: 356378906 heartbeat IPC: 0.400081 cumulative IPC: 0.39694 (Simulation time: 8 hr 27 min 13 sec) 
 Total Blocks : 262144 Invalid Blocks : 0
Heartbeat CPU 3 instructions: 280000000 cycles: 356656830 heartbeat IPC: 0.399174 cumulative IPC: 0.396418 (Simulation time: 8 hr 27 min 30 sec) 
 Total Blocks : 262144 Invalid Blocks : 0
Heartbeat CPU 6 instructions: 290000001 cycles: 381452323 heartbeat IPC: 0.398372 cumulative IPC: 0.397127 (Simulation time: 8 hr 52 min 14 sec) 
 Total Blocks : 262144 Invalid Blocks : 0
Heartbeat CPU 5 instructions: 290000001 cycles: 381452425 heartbeat IPC: 0.398356 cumulative IPC: 0.397154 (Simulation time: 8 hr 52 min 14 sec) 
 Total Blocks : 262144 Invalid Blocks : 0
Heartbeat CPU 2 instructions: 290000001 cycles: 381452728 heartbeat IPC: 0.398376 cumulative IPC: 0.39715 (Simulation time: 8 hr 52 min 15 sec) 
 Total Blocks : 262144 Invalid Blocks : 0
Heartbeat CPU 7 instructions: 290000001 cycles: 381452924 heartbeat IPC: 0.398212 cumulative IPC: 0.397132 (Simulation time: 8 hr 52 min 15 sec) 
 Total Blocks : 262144 Invalid Blocks : 0
Heartbeat CPU 0 instructions: 290000001 cycles: 381453836 heartbeat IPC: 0.398328 cumulative IPC: 0.397149 (Simulation time: 8 hr 52 min 15 sec) 
 Total Blocks : 262144 Invalid Blocks : 0
Heartbeat CPU 4 instructions: 290000001 cycles: 381478916 heartbeat IPC: 0.398403 cumulative IPC: 0.397098 (Simulation time: 8 hr 52 min 16 sec) 
 Total Blocks : 262144 Invalid Blocks : 0
Heartbeat CPU 1 instructions: 290000001 cycles: 381479020 heartbeat IPC: 0.398405 cumulative IPC: 0.397102 (Simulation time: 8 hr 52 min 16 sec) 
 Total Blocks : 262144 Invalid Blocks : 0
Heartbeat CPU 3 instructions: 290000001 cycles: 381831996 heartbeat IPC: 0.397217 cumulative IPC: 0.396506 (Simulation time: 8 hr 52 min 38 sec) 
 Total Blocks : 262144 Invalid Blocks : 0
Heartbeat CPU 7 instructions: 300000000 cycles: 406913062 heartbeat IPC: 0.392771 cumulative IPC: 0.396691 (Simulation time: 9 hr 17 min 38 sec) 
 Total Blocks : 262144 Invalid Blocks : 0
Heartbeat CPU 6 instructions: 300000000 cycles: 406913164 heartbeat IPC: 0.39276 cumulative IPC: 0.396686 (Simulation time: 9 hr 17 min 38 sec) 
 Total Blocks : 262144 Invalid Blocks : 0
Heartbeat CPU 5 instructions: 300000000 cycles: 406913266 heartbeat IPC: 0.39276 cumulative IPC: 0.39671 (Simulation time: 9 hr 17 min 38 sec) 
 Total Blocks : 262144 Invalid Blocks : 0
Heartbeat CPU 2 instructions: 300000000 cycles: 406913561 heartbeat IPC: 0.39276 cumulative IPC: 0.396707 (Simulation time: 9 hr 17 min 38 sec) 
 Total Blocks : 262144 Invalid Blocks : 0
Heartbeat CPU 0 instructions: 300000000 cycles: 406913669 heartbeat IPC: 0.392776 cumulative IPC: 0.396708 (Simulation time: 9 hr 17 min 38 sec) 
 Total Blocks : 262144 Invalid Blocks : 0
Heartbeat CPU 4 instructions: 300000000 cycles: 406933194 heartbeat IPC: 0.392861 cumulative IPC: 0.396671 (Simulation time: 9 hr 17 min 39 sec) 
 Total Blocks : 262144 Invalid Blocks : 0
Heartbeat CPU 1 instructions: 300000000 cycles: 406934495 heartbeat IPC: 0.392843 cumulative IPC: 0.396672 (Simulation time: 9 hr 17 min 39 sec) 
 Total Blocks : 262144 Invalid Blocks : 0
Heartbeat CPU 3 instructions: 300000000 cycles: 407318855 heartbeat IPC: 0.392359 cumulative IPC: 0.396088 (Simulation time: 9 hr 18 min 0 sec) 
 Total Blocks : 262144 Invalid Blocks : 0
Heartbeat CPU 7 instructions: 310000000 cycles: 431978294 heartbeat IPC: 0.398959 cumulative IPC: 0.396896 (Simulation time: 9 hr 42 min 14 sec) 
 Total Blocks : 262144 Invalid Blocks : 0
Heartbeat CPU 2 instructions: 310000000 cycles: 431978396 heartbeat IPC: 0.398965 cumulative IPC: 0.396911 (Simulation time: 9 hr 42 min 14 sec) 
 Total Blocks : 262144 Invalid Blocks : 0
Heartbeat CPU 6 instructions: 310000000 cycles: 431978498 heartbeat IPC: 0.398957 cumulative IPC: 0.396891 (Simulation time: 9 hr 42 min 14 sec) 
 Total Blocks : 262144 Invalid Blocks : 0
Heartbeat CPU 5 instructions: 310000000 cycles: 431978600 heartbeat IPC: 0.398957 cumulative IPC: 0.396913 (Simulation time: 9 hr 42 min 14 sec) 
 Total Blocks : 262144 Invalid Blocks : 0
Heartbeat CPU 0 instructions: 310000000 cycles: 431978702 heartbeat IPC: 0.398962 cumulative IPC: 0.396911 (Simulation time: 9 hr 42 min 14 sec) 
 Total Blocks : 262144 Invalid Blocks : 0
Heartbeat CPU 4 instructions: 310000000 cycles: 431998778 heartbeat IPC: 0.398953 cumulative IPC: 0.396877 (Simulation time: 9 hr 42 min 15 sec) 
 Total Blocks : 262144 Invalid Blocks : 0
Heartbeat CPU 1 instructions: 310000000 cycles: 431998982 heartbeat IPC: 0.398971 cumulative IPC: 0.39688 (Simulation time: 9 hr 42 min 15 sec) 
 Total Blocks : 262144 Invalid Blocks : 0
Heartbeat CPU 3 instructions: 310000000 cycles: 432407904 heartbeat IPC: 0.39858 cumulative IPC: 0.396313 (Simulation time: 9 hr 42 min 39 sec) 
 Total Blocks : 262144 Invalid Blocks : 0
Heartbeat CPU 5 instructions: 320000000 cycles: 457279873 heartbeat IPC: 0.395237 cumulative IPC: 0.396773 (Simulation time: 10 hr 7 min 14 sec) 
 Total Blocks : 262144 Invalid Blocks : 0
Heartbeat CPU 6 instructions: 320000000 cycles: 457279975 heartbeat IPC: 0.395234 cumulative IPC: 0.396752 (Simulation time: 10 hr 7 min 14 sec) 
 Total Blocks : 262144 Invalid Blocks : 0
Heartbeat CPU 2 instructions: 320000000 cycles: 457280352 heartbeat IPC: 0.395226 cumulative IPC: 0.39677 (Simulation time: 10 hr 7 min 14 sec) 
 Total Blocks : 262144 Invalid Blocks : 0
Heartbeat CPU 0 instructions: 320000000 cycles: 457280771 heartbeat IPC: 0.395225 cumulative IPC: 0.39677 (Simulation time: 10 hr 7 min 14 sec) 
 Total Blocks : 262144 Invalid Blocks : 0
Heartbeat CPU 7 instructions: 320000000 cycles: 457280873 heartbeat IPC: 0.395217 cumulative IPC: 0.396756 (Simulation time: 10 hr 7 min 14 sec) 
 Total Blocks : 262144 Invalid Blocks : 0
Heartbeat CPU 4 instructions: 320000000 cycles: 457300641 heartbeat IPC: 0.395228 cumulative IPC: 0.396739 (Simulation time: 10 hr 7 min 15 sec) 
 Total Blocks : 262144 Invalid Blocks : 0
Heartbeat CPU 1 instructions: 320000000 cycles: 457300814 heartbeat IPC: 0.395228 cumulative IPC: 0.396742 (Simulation time: 10 hr 7 min 15 sec) 
 Total Blocks : 262144 Invalid Blocks : 0
Heartbeat CPU 3 instructions: 320000000 cycles: 457724720 heartbeat IPC: 0.394994 cumulative IPC: 0.396203 (Simulation time: 10 hr 7 min 38 sec) 
 Total Blocks : 262144 Invalid Blocks : 0
Heartbeat CPU 6 instructions: 330000000 cycles: 482650759 heartbeat IPC: 0.394154 cumulative IPC: 0.396551 (Simulation time: 10 hr 36 min 58 sec) 
 Total Blocks : 262144 Invalid Blocks : 0
Heartbeat CPU 5 instructions: 330000000 cycles: 482650861 heartbeat IPC: 0.394151 cumulative IPC: 0.39657 (Simulation time: 10 hr 36 min 58 sec) 
 Total Blocks : 262144 Invalid Blocks : 0
Heartbeat CPU 7 instructions: 330000000 cycles: 482650970 heartbeat IPC: 0.394165 cumulative IPC: 0.396555 (Simulation time: 10 hr 36 min 58 sec) 
 Total Blocks : 262144 Invalid Blocks : 0
Heartbeat CPU 1 instructions: 330000000 cycles: 482656173 heartbeat IPC: 0.394394 cumulative IPC: 0.39656 (Simulation time: 10 hr 36 min 58 sec) 
 Total Blocks : 262144 Invalid Blocks : 0
Heartbeat CPU 2 instructions: 330000000 cycles: 482656275 heartbeat IPC: 0.394074 cumulative IPC: 0.396562 (Simulation time: 10 hr 36 min 58 sec) 
 Total Blocks : 262144 Invalid Blocks : 0
Heartbeat CPU 0 instructions: 330000000 cycles: 482656377 heartbeat IPC: 0.394079 cumulative IPC: 0.396562 (Simulation time: 10 hr 36 min 58 sec) 
 Total Blocks : 262144 Invalid Blocks : 0
Heartbeat CPU 4 instructions: 330000000 cycles: 482659181 heartbeat IPC: 0.394344 cumulative IPC: 0.396554 (Simulation time: 10 hr 36 min 58 sec) 
 Total Blocks : 262144 Invalid Blocks : 0
Heartbeat CPU 3 instructions: 330000000 cycles: 483105495 heartbeat IPC: 0.393999 cumulative IPC: 0.396032 (Simulation time: 10 hr 37 min 24 sec) 
 Total Blocks : 262144 Invalid Blocks : 0
Heartbeat CPU 7 instructions: 340000001 cycles: 507731360 heartbeat IPC: 0.398718 cumulative IPC: 0.396709 (Simulation time: 11 hr 0 min 50 sec) 
 Total Blocks : 262144 Invalid Blocks : 0
Heartbeat CPU 6 instructions: 340000001 cycles: 507731462 heartbeat IPC: 0.398713 cumulative IPC: 0.396705 (Simulation time: 11 hr 0 min 50 sec) 
 Total Blocks : 262144 Invalid Blocks : 0
Heartbeat CPU 4 instructions: 340000001 cycles: 507731564 heartbeat IPC: 0.398845 cumulative IPC: 0.396717 (Simulation time: 11 hr 0 min 50 sec) 
 Total Blocks : 262144 Invalid Blocks : 0
Heartbeat CPU 1 instructions: 340000001 cycles: 507731695 heartbeat IPC: 0.398795 cumulative IPC: 0.396719 (Simulation time: 11 hr 0 min 50 sec) 
 Total Blocks : 262144 Invalid Blocks : 0
Heartbeat CPU 0 instructions: 340000001 cycles: 507731797 heartbeat IPC: 0.398797 cumulative IPC: 0.396721 (Simulation time: 11 hr 0 min 50 sec) 
 Total Blocks : 262144 Invalid Blocks : 0
Heartbeat CPU 2 instructions: 340000001 cycles: 507732121 heartbeat IPC: 0.39879 cumulative IPC: 0.39672 (Simulation time: 11 hr 0 min 50 sec) 
 Total Blocks : 262144 Invalid Blocks : 0
Heartbeat CPU 5 instructions: 340000001 cycles: 507732223 heartbeat IPC: 0.398702 cumulative IPC: 0.396722 (Simulation time: 11 hr 0 min 50 sec) 
 Total Blocks : 262144 Invalid Blocks : 0
Heartbeat CPU 3 instructions: 340000001 cycles: 508198112 heartbeat IPC: 0.398524 cumulative IPC: 0.396209 (Simulation time: 11 hr 1 min 18 sec) 
 Total Blocks : 262144 Invalid Blocks : 0
Heartbeat CPU 6 instructions: 350000003 cycles: 533063950 heartbeat IPC: 0.39475 cumulative IPC: 0.396574 (Simulation time: 11 hr 24 min 7 sec) 
 Total Blocks : 262144 Invalid Blocks : 0
Heartbeat CPU 4 instructions: 350000003 cycles: 533064318 heartbeat IPC: 0.394746 cumulative IPC: 0.396585 (Simulation time: 11 hr 24 min 7 sec) 
 Total Blocks : 262144 Invalid Blocks : 0
Heartbeat CPU 5 instructions: 350000003 cycles: 533064425 heartbeat IPC: 0.394755 cumulative IPC: 0.39659 (Simulation time: 11 hr 24 min 7 sec) 
 Total Blocks : 262144 Invalid Blocks : 0
Heartbeat CPU 7 instructions: 350000003 cycles: 533064535 heartbeat IPC: 0.394739 cumulative IPC: 0.396577 (Simulation time: 11 hr 24 min 7 sec) 
 Total Blocks : 262144 Invalid Blocks : 0
Heartbeat CPU 2 instructions: 350000003 cycles: 533064637 heartbeat IPC: 0.39475 cumulative IPC: 0.396588 (Simulation time: 11 hr 24 min 7 sec) 
 Total Blocks : 262144 Invalid Blocks : 0
Heartbeat CPU 0 instructions: 350000003 cycles: 533064739 heartbeat IPC: 0.394743 cumulative IPC: 0.396588 (Simulation time: 11 hr 24 min 7 sec) 
 Total Blocks : 262144 Invalid Blocks : 0
Heartbeat CPU 1 instructions: 350000003 cycles: 533064844 heartbeat IPC: 0.39474 cumulative IPC: 0.396587 (Simulation time: 11 hr 24 min 7 sec) 
 Total Blocks : 262144 Invalid Blocks : 0
Heartbeat CPU 3 instructions: 350000003 cycles: 533519387 heartbeat IPC: 0.394925 cumulative IPC: 0.396123 (Simulation time: 11 hr 24 min 31 sec) 
 Total Blocks : 262144 Invalid Blocks : 0
Heartbeat CPU 7 instructions: 360000003 cycles: 558396606 heartbeat IPC: 0.394757 cumulative IPC: 0.396463 (Simulation time: 11 hr 46 min 45 sec) 
 Total Blocks : 262144 Invalid Blocks : 0
Heartbeat CPU 6 instructions: 360000003 cycles: 558396679 heartbeat IPC: 0.394746 cumulative IPC: 0.396459 (Simulation time: 11 hr 46 min 45 sec) 
 Total Blocks : 262144 Invalid Blocks : 0
Heartbeat CPU 5 instructions: 360000003 cycles: 558396730 heartbeat IPC: 0.394753 cumulative IPC: 0.396475 (Simulation time: 11 hr 46 min 45 sec) 
 Total Blocks : 262144 Invalid Blocks : 0
Heartbeat CPU 2 instructions: 360000003 cycles: 558396863 heartbeat IPC: 0.394754 cumulative IPC: 0.396473 (Simulation time: 11 hr 46 min 45 sec) 
 Total Blocks : 262144 Invalid Blocks : 0
Heartbeat CPU 0 instructions: 360000003 cycles: 558404985 heartbeat IPC: 0.394629 cumulative IPC: 0.396465 (Simulation time: 11 hr 46 min 45 sec) 
 Total Blocks : 262144 Invalid Blocks : 0
Heartbeat CPU 1 instructions: 360000003 cycles: 558405036 heartbeat IPC: 0.39463 cumulative IPC: 0.396464 (Simulation time: 11 hr 46 min 45 sec) 
 Total Blocks : 262144 Invalid Blocks : 0
Heartbeat CPU 4 instructions: 360000003 cycles: 558405291 heartbeat IPC: 0.394618 cumulative IPC: 0.396461 (Simulation time: 11 hr 46 min 45 sec) 
 Total Blocks : 262144 Invalid Blocks : 0
Heartbeat CPU 3 instructions: 360000003 cycles: 558864610 heartbeat IPC: 0.394552 cumulative IPC: 0.396025 (Simulation time: 11 hr 47 min 9 sec) 
 Total Blocks : 262144 Invalid Blocks : 0
Heartbeat CPU 4 instructions: 370000003 cycles: 583450960 heartbeat IPC: 0.399271 cumulative IPC: 0.396625 (Simulation time: 12 hr 8 min 34 sec) 
 Total Blocks : 262144 Invalid Blocks : 0
Heartbeat CPU 7 instructions: 370000003 cycles: 583451062 heartbeat IPC: 0.399131 cumulative IPC: 0.396619 (Simulation time: 12 hr 8 min 34 sec) 
 Total Blocks : 262144 Invalid Blocks : 0
Heartbeat CPU 6 instructions: 370000003 cycles: 583451164 heartbeat IPC: 0.39913 cumulative IPC: 0.396615 (Simulation time: 12 hr 8 min 34 sec) 
 Total Blocks : 262144 Invalid Blocks : 0
Heartbeat CPU 1 instructions: 370000003 cycles: 583451266 heartbeat IPC: 0.399262 cumulative IPC: 0.396627 (Simulation time: 12 hr 8 min 34 sec) 
 Total Blocks : 262144 Invalid Blocks : 0
Heartbeat CPU 0 instructions: 370000003 cycles: 583451368 heartbeat IPC: 0.399259 cumulative IPC: 0.396629 (Simulation time: 12 hr 8 min 34 sec) 
 Total Blocks : 262144 Invalid Blocks : 0
Heartbeat CPU 2 instructions: 370000003 cycles: 583451470 heartbeat IPC: 0.399128 cumulative IPC: 0.396628 (Simulation time: 12 hr 8 min 34 sec) 
 Total Blocks : 262144 Invalid Blocks : 0
Heartbeat CPU 5 instructions: 370000003 cycles: 583451572 heartbeat IPC: 0.399124 cumulative IPC: 0.39663 (Simulation time: 12 hr 8 min 34 sec) 
 Total Blocks : 262144 Invalid Blocks : 0
Heartbeat CPU 3 instructions: 370000003 cycles: 583958991 heartbeat IPC: 0.398496 cumulative IPC: 0.396169 (Simulation time: 12 hr 9 min 0 sec) 
 Total Blocks : 262144 Invalid Blocks : 0
Heartbeat CPU 6 instructions: 380000001 cycles: 608816629 heartbeat IPC: 0.394237 cumulative IPC: 0.396482 (Simulation time: 12 hr 30 min 41 sec) 
 Total Blocks : 262144 Invalid Blocks : 0
Heartbeat CPU 2 instructions: 380000001 cycles: 608816731 heartbeat IPC: 0.39424 cumulative IPC: 0.396495 (Simulation time: 12 hr 30 min 41 sec) 
 Total Blocks : 262144 Invalid Blocks : 0
Heartbeat CPU 1 instructions: 380000001 cycles: 608816833 heartbeat IPC: 0.394235 cumulative IPC: 0.396494 (Simulation time: 12 hr 30 min 41 sec) 
 Total Blocks : 262144 Invalid Blocks : 0
Heartbeat CPU 0 instructions: 380000001 cycles: 608816935 heartbeat IPC: 0.394235 cumulative IPC: 0.396495 (Simulation time: 12 hr 30 min 41 sec) 
 Total Blocks : 262144 Invalid Blocks : 0
Heartbeat CPU 7 instructions: 380000001 cycles: 608817750 heartbeat IPC: 0.394218 cumulative IPC: 0.396485 (Simulation time: 12 hr 30 min 41 sec) 
 Total Blocks : 262144 Invalid Blocks : 0
Heartbeat CPU 5 instructions: 380000001 cycles: 608817852 heartbeat IPC: 0.394224 cumulative IPC: 0.396495 (Simulation time: 12 hr 30 min 41 sec) 
 Total Blocks : 262144 Invalid Blocks : 0
Heartbeat CPU 4 instructions: 380000001 cycles: 608817954 heartbeat IPC: 0.394213 cumulative IPC: 0.396491 (Simulation time: 12 hr 30 min 41 sec) 
 Total Blocks : 262144 Invalid Blocks : 0
Heartbeat CPU 3 instructions: 380000001 cycles: 609316375 heartbeat IPC: 0.394362 cumulative IPC: 0.396068 (Simulation time: 12 hr 31 min 8 sec) 
 Total Blocks : 262144 Invalid Blocks : 0
Heartbeat CPU 6 instructions: 390000000 cycles: 633614922 heartbeat IPC: 0.403254 cumulative IPC: 0.396833 (Simulation time: 12 hr 58 min 48 sec) 
 Total Blocks : 262144 Invalid Blocks : 0
Heartbeat CPU 4 instructions: 390000000 cycles: 633622495 heartbeat IPC: 0.403152 cumulative IPC: 0.396836 (Simulation time: 12 hr 58 min 49 sec) 
 Total Blocks : 262144 Invalid Blocks : 0
Heartbeat CPU 2 instructions: 390000000 cycles: 633626119 heartbeat IPC: 0.403073 cumulative IPC: 0.396836 (Simulation time: 12 hr 58 min 49 sec) 
 Total Blocks : 262144 Invalid Blocks : 0
Heartbeat CPU 5 instructions: 390000000 cycles: 633634424 heartbeat IPC: 0.402956 cumulative IPC: 0.39683 (Simulation time: 12 hr 58 min 49 sec) 
 Total Blocks : 262144 Invalid Blocks : 0
Heartbeat CPU 7 instructions: 390000000 cycles: 633643233 heartbeat IPC: 0.402812 cumulative IPC: 0.396813 (Simulation time: 12 hr 58 min 50 sec) 
 Total Blocks : 262144 Invalid Blocks : 0
Heartbeat CPU 1 instructions: 390000000 cycles: 633663456 heartbeat IPC: 0.402469 cumulative IPC: 0.396804 (Simulation time: 12 hr 58 min 51 sec) 
 Total Blocks : 262144 Invalid Blocks : 0
Heartbeat CPU 0 instructions: 390000000 cycles: 633665893 heartbeat IPC: 0.402431 cumulative IPC: 0.396803 (Simulation time: 12 hr 58 min 51 sec) 
 Total Blocks : 262144 Invalid Blocks : 0
Heartbeat CPU 3 instructions: 390000000 cycles: 634114008 heartbeat IPC: 0.403264 cumulative IPC: 0.396441 (Simulation time: 12 hr 59 min 14 sec) 
 Total Blocks : 262144 Invalid Blocks : 0
Heartbeat CPU 4 instructions: 400000001 cycles: 658639419 heartbeat IPC: 0.399729 cumulative IPC: 0.396979 (Simulation time: 13 hr 19 min 45 sec) 
 Total Blocks : 262144 Invalid Blocks : 0
Heartbeat CPU 6 instructions: 400000001 cycles: 658639521 heartbeat IPC: 0.399607 cumulative IPC: 0.396971 (Simulation time: 13 hr 19 min 45 sec) 
 Total Blocks : 262144 Invalid Blocks : 0
Heartbeat CPU 2 instructions: 400000001 cycles: 658639723 heartbeat IPC: 0.399783 cumulative IPC: 0.396982 (Simulation time: 13 hr 19 min 45 sec) 
 Total Blocks : 262144 Invalid Blocks : 0
Heartbeat CPU 7 instructions: 400000001 cycles: 658640041 heartbeat IPC: 0.400051 cumulative IPC: 0.396973 (Simulation time: 13 hr 19 min 45 sec) 
 Total Blocks : 262144 Invalid Blocks : 0
Heartbeat CPU 5 instructions: 400000001 cycles: 658640143 heartbeat IPC: 0.399909 cumulative IPC: 0.396983 (Simulation time: 13 hr 19 min 45 sec) 
 Total Blocks : 262144 Invalid Blocks : 0
Finished CPU 5 instructions: 200000003 cycles: 503799973 cumulative IPC: 0.396983 (Simulation time: 13 hr 19 min 46 sec) 
Finished CPU 2 instructions: 200000000 cycles: 503801129 cumulative IPC: 0.396982 (Simulation time: 13 hr 19 min 46 sec) 
Finished CPU 4 instructions: 200000003 cycles: 503804380 cumulative IPC: 0.396979 (Simulation time: 13 hr 19 min 46 sec) 
Finished CPU 7 instructions: 200000000 cycles: 503811590 cumulative IPC: 0.396974 (Simulation time: 13 hr 19 min 46 sec) 
Finished CPU 6 instructions: 200000000 cycles: 503815229 cumulative IPC: 0.396971 (Simulation time: 13 hr 19 min 47 sec) 
Heartbeat CPU 1 instructions: 400000001 cycles: 658678042 heartbeat IPC: 0.399767 cumulative IPC: 0.396951 (Simulation time: 13 hr 19 min 47 sec) 
 Total Blocks : 262144 Invalid Blocks : 0
Heartbeat CPU 0 instructions: 400000001 cycles: 658678148 heartbeat IPC: 0.399804 cumulative IPC: 0.396952 (Simulation time: 13 hr 19 min 47 sec) 
 Total Blocks : 262144 Invalid Blocks : 0
Finished CPU 0 instructions: 200000000 cycles: 503839235 cumulative IPC: 0.396952 (Simulation time: 13 hr 19 min 48 sec) 
Finished CPU 1 instructions: 200000000 cycles: 503840715 cumulative IPC: 0.396951 (Simulation time: 13 hr 19 min 48 sec) 
Heartbeat CPU 3 instructions: 400000001 cycles: 659199804 heartbeat IPC: 0.398632 cumulative IPC: 0.39655 (Simulation time: 13 hr 20 min 14 sec) 
 Total Blocks : 262144 Invalid Blocks : 0
Finished CPU 3 instructions: 200000001 cycles: 504350365 cumulative IPC: 0.39655 (Simulation time: 13 hr 20 min 14 sec) 

CPU 0 Branch Prediction Accuracy: 94.1237% MPKI: 12.4851 Average ROB Occupancy at Mispredict: 116.242

CPU 1 Branch Prediction Accuracy: 94.1237% MPKI: 12.485 Average ROB Occupancy at Mispredict: 116.241

CPU 2 Branch Prediction Accuracy: 94.1236% MPKI: 12.4851 Average ROB Occupancy at Mispredict: 116.24

CPU 3 Branch Prediction Accuracy: 94.1237% MPKI: 12.4853 Average ROB Occupancy at Mispredict: 116.231

CPU 4 Branch Prediction Accuracy: 94.1236% MPKI: 12.485 Average ROB Occupancy at Mispredict: 116.234

CPU 5 Branch Prediction Accuracy: 94.1236% MPKI: 12.4851 Average ROB Occupancy at Mispredict: 116.24

CPU 6 Branch Prediction Accuracy: 94.1236% MPKI: 12.4847 Average ROB Occupancy at Mispredict: 116.231

CPU 7 Branch Prediction Accuracy: 94.1236% MPKI: 12.4848 Average ROB Occupancy at Mispredict: 116.24

ChampSim completed all CPUs

Total Simulation Statistics (not including warmup)

CPU 0 cumulative IPC: 0.396956 instructions: 200204924 cycles: 504350365
ITLB TOTAL     ACCESS: 22851360  HIT: 22851360  MISS:     0  HIT %:   100  MISS %:     0  AVERAGE MISS PENALTY: 0
ITLB LOAD      ACCESS: 22851360  HIT: 22851360  MISS:     0  HIT %:   100  MISS %:     0  AVERAGE MISS PENALTY: 0
ITLB RFO       ACCESS:     0  HIT:     0  MISS:     0  HIT %:     0  MISS %:     0  AVERAGE MISS PENALTY: 0
ITLB PREFETCH  ACCESS:     0  HIT:     0  MISS:     0  HIT %:     0  MISS %:     0  AVERAGE MISS PENALTY: 0
ITLB WRITEBACK ACCESS:     0  HIT:     0  MISS:     0  HIT %:     0  MISS %:     0  AVERAGE MISS PENALTY: 0

DTLB TOTAL     ACCESS: 63774465  HIT: 63711478  MISS: 62987  HIT %: 99.9012  MISS %: 0.0987652  AVERAGE MISS PENALTY: 75.3807
DTLB LOAD      ACCESS: 41312967  HIT: 41250145  MISS: 62822  HIT %: 99.8479  MISS %: 0.152064  AVERAGE MISS PENALTY: 75.4897
DTLB RFO       ACCESS: 22461498  HIT: 22461333  MISS:   165  HIT %: 99.9993  MISS %: 0.00073459  AVERAGE MISS PENALTY: 33.8485
DTLB PREFETCH  ACCESS:     0  HIT:     0  MISS:     0  HIT %:     0  MISS %:     0  AVERAGE MISS PENALTY: 0
DTLB WRITEBACK ACCESS:     0  HIT:     0  MISS:     0  HIT %:     0  MISS %:     0  AVERAGE MISS PENALTY: 0

STLB TOTAL     ACCESS: 62987  HIT: 21365  MISS: 41622  HIT %: 33.9197  MISS %: 66.0803  AVERAGE MISS PENALTY: 100
STLB LOAD      ACCESS: 62822  HIT: 21241  MISS: 41581  HIT %: 33.8114  MISS %: 66.1886  AVERAGE MISS PENALTY: 100
STLB RFO       ACCESS:   165  HIT:   124  MISS:    41  HIT %: 75.1515  MISS %: 24.8485  AVERAGE MISS PENALTY: 100
STLB PREFETCH  ACCESS:     0  HIT:     0  MISS:     0  HIT %:     0  MISS %:     0  AVERAGE MISS PENALTY: 0
STLB WRITEBACK ACCESS:     0  HIT:     0  MISS:     0  HIT %:     0  MISS %:     0  AVERAGE MISS PENALTY: 0

L1D TOTAL     ACCESS: 109161034  HIT: 105622564  MISS: 3538470  HIT %: 96.7585  MISS %: 3.24151  AVERAGE MISS PENALTY: 570445
L1D LOAD      ACCESS: 39921530  HIT: 39753379  MISS: 168151  HIT %: 99.5788  MISS %: 0.421204  AVERAGE MISS PENALTY: 1.1919e+07
L1D RFO       ACCESS: 22579293  HIT: 22577990  MISS:  1303  HIT %: 99.9942  MISS %: 0.00577077  AVERAGE MISS PENALTY: 1.09108e+07
L1D PREFETCH  ACCESS: 46660211  HIT: 43291195  MISS: 3369016  HIT %: 92.7797  MISS %: 7.22032  AVERAGE MISS PENALTY: 30.1148
L1D WRITEBACK ACCESS:     0  HIT:     0  MISS:     0  HIT %:     0  MISS %:     0  AVERAGE MISS PENALTY: 0

L1I TOTAL     ACCESS: 35369659  HIT: 35369659  MISS:     0  HIT %:   100  MISS %:     0  AVERAGE MISS PENALTY: 0
L1I LOAD      ACCESS: 35369659  HIT: 35369659  MISS:     0  HIT %:   100  MISS %:     0  AVERAGE MISS PENALTY: 0
L1I RFO       ACCESS:     0  HIT:     0  MISS:     0  HIT %:     0  MISS %:     0  AVERAGE MISS PENALTY: 0
L1I PREFETCH  ACCESS:     0  HIT:     0  MISS:     0  HIT %:     0  MISS %:     0  AVERAGE MISS PENALTY: 0
L1I WRITEBACK ACCESS:     0  HIT:     0  MISS:     0  HIT %:     0  MISS %:     0  AVERAGE MISS PENALTY: 0

L2C TOTAL     ACCESS: 9119410  HIT: 7285286  MISS: 1834124  HIT %: 79.8877  MISS %: 20.1123  AVERAGE MISS PENALTY: 767307
L2C LOAD      ACCESS: 167548  HIT: 99020  MISS: 68528  HIT %: 59.0995  MISS %: 40.9005  AVERAGE MISS PENALTY: 2.05325e+07
L2C RFO       ACCESS:  1273  HIT:   718  MISS:   555  HIT %: 56.4022  MISS %: 43.5978  AVERAGE MISS PENALTY: 231.894
L2C PREFETCH  ACCESS: 8909213  HIT: 7144412  MISS: 1764801  HIT %: 80.1913  MISS %: 19.8087  AVERAGE MISS PENALTY: 161.63
L2C WRITEBACK ACCESS: 41376  HIT: 41136  MISS:   240  HIT %: 99.42  MISS %: 0.580046  AVERAGE MISS PENALTY: 0


LLC0 TOTAL     ACCESS: 231192  HIT:  7630  MISS: 223562  HIT %: 3.30029  MISS %: 96.6997  AVERAGE MISS PENALTY: 129.678
LLC0 LOAD      ACCESS: 29287  HIT:   611  MISS: 28676  HIT %: 2.08625  MISS %: 97.9138  AVERAGE MISS PENALTY: 146.628
LLC0 RFO       ACCESS:    87  HIT:    10  MISS:    77  HIT %: 11.4943  MISS %: 88.5057  AVERAGE MISS PENALTY: 206.182
LLC0 PREFETCH  ACCESS: 198852  HIT:  5431  MISS: 193421  HIT %: 2.73118  MISS %: 97.2688  AVERAGE MISS PENALTY: 128.065
LLC0 WRITEBACK ACCESS:  2966  HIT:  1578  MISS:  1388  HIT %: 53.203  MISS %: 46.797  AVERAGE MISS PENALTY: 0

LLC1 TOTAL     ACCESS: 232427  HIT:  8047  MISS: 224380  HIT %: 3.46216  MISS %: 96.5378  AVERAGE MISS PENALTY: 128.701
LLC1 LOAD      ACCESS:  5327  HIT:   717  MISS:  4610  HIT %: 13.4597  MISS %: 86.5403  AVERAGE MISS PENALTY: 191.91
LLC1 RFO       ACCESS:    73  HIT:    16  MISS:    57  HIT %: 21.9178  MISS %: 78.0822  AVERAGE MISS PENALTY: 236.228
LLC1 PREFETCH  ACCESS: 224192  HIT:  5874  MISS: 218318  HIT %: 2.62008  MISS %: 97.3799  AVERAGE MISS PENALTY: 128.161
LLC1 WRITEBACK ACCESS:  2835  HIT:  1440  MISS:  1395  HIT %: 50.7937  MISS %: 49.2063  AVERAGE MISS PENALTY: 0

LLC2 TOTAL     ACCESS: 231240  HIT:  7239  MISS: 224001  HIT %: 3.13051  MISS %: 96.8695  AVERAGE MISS PENALTY: 129.012
LLC2 LOAD      ACCESS:  4994  HIT:   594  MISS:  4400  HIT %: 11.8943  MISS %: 88.1057  AVERAGE MISS PENALTY: 187.735
LLC2 RFO       ACCESS:    91  HIT:    35  MISS:    56  HIT %: 38.4615  MISS %: 61.5385  AVERAGE MISS PENALTY: 190.536
LLC2 PREFETCH  ACCESS: 223371  HIT:  5250  MISS: 218121  HIT %: 2.35035  MISS %: 97.6497  AVERAGE MISS PENALTY: 128.654
LLC2 WRITEBACK ACCESS:  2784  HIT:  1360  MISS:  1424  HIT %: 48.8506  MISS %: 51.1494  AVERAGE MISS PENALTY: 0

LLC3 TOTAL     ACCESS: 232614  HIT:  8397  MISS: 224217  HIT %: 3.60984  MISS %: 96.3902  AVERAGE MISS PENALTY: 124.379
LLC3 LOAD      ACCESS:  5775  HIT:  1168  MISS:  4607  HIT %: 20.2251  MISS %: 79.7749  AVERAGE MISS PENALTY: 187.982
LLC3 RFO       ACCESS:    78  HIT:    12  MISS:    66  HIT %: 15.3846  MISS %: 84.6154  AVERAGE MISS PENALTY: 206.091
LLC3 PREFETCH  ACCESS: 223817  HIT:  5639  MISS: 218178  HIT %: 2.51947  MISS %: 97.4805  AVERAGE MISS PENALTY: 123.79
LLC3 WRITEBACK ACCESS:  2944  HIT:  1578  MISS:  1366  HIT %: 53.6005  MISS %: 46.3995  AVERAGE MISS PENALTY: 0

LLC4 TOTAL     ACCESS: 232752  HIT:  8353  MISS: 224399  HIT %: 3.5888  MISS %: 96.4112  AVERAGE MISS PENALTY: 128.051
LLC4 LOAD      ACCESS:  5747  HIT:  1265  MISS:  4482  HIT %: 22.0115  MISS %: 77.9885  AVERAGE MISS PENALTY: 192.828
LLC4 RFO       ACCESS:    69  HIT:     6  MISS:    63  HIT %: 8.69565  MISS %: 91.3043  AVERAGE MISS PENALTY: 235.524
LLC4 PREFETCH  ACCESS: 224095  HIT:  5659  MISS: 218436  HIT %: 2.52527  MISS %: 97.4747  AVERAGE MISS PENALTY: 127.523
LLC4 WRITEBACK ACCESS:  2841  HIT:  1423  MISS:  1418  HIT %: 50.088  MISS %: 49.912  AVERAGE MISS PENALTY: 0

LLC5 TOTAL     ACCESS: 233154  HIT:  8747  MISS: 224407  HIT %: 3.7516  MISS %: 96.2484  AVERAGE MISS PENALTY: 129.781
LLC5 LOAD      ACCESS:  4628  HIT:   457  MISS:  4171  HIT %: 9.87468  MISS %: 90.1253  AVERAGE MISS PENALTY: 197.305
LLC5 RFO       ACCESS:    54  HIT:     1  MISS:    53  HIT %: 1.85185  MISS %: 98.1481  AVERAGE MISS PENALTY: 236.264
LLC5 PREFETCH  ACCESS: 225517  HIT:  6747  MISS: 218770  HIT %: 2.99179  MISS %: 97.0082  AVERAGE MISS PENALTY: 129.306
LLC5 WRITEBACK ACCESS:  2955  HIT:  1542  MISS:  1413  HIT %: 52.1827  MISS %: 47.8173  AVERAGE MISS PENALTY: 0

LLC6 TOTAL     ACCESS: 231822  HIT:  7750  MISS: 224072  HIT %: 3.34308  MISS %: 96.6569  AVERAGE MISS PENALTY: 123.173
LLC6 LOAD      ACCESS:  4559  HIT:   434  MISS:  4125  HIT %: 9.51963  MISS %: 90.4804  AVERAGE MISS PENALTY: 193.146
LLC6 RFO       ACCESS:    54  HIT:     0  MISS:    54  HIT %:     0  MISS %:   100  AVERAGE MISS PENALTY: 214.148
LLC6 PREFETCH  ACCESS: 224304  HIT:  5887  MISS: 218417  HIT %: 2.62456  MISS %: 97.3754  AVERAGE MISS PENALTY: 122.661
LLC6 WRITEBACK ACCESS:  2905  HIT:  1429  MISS:  1476  HIT %: 49.191  MISS %: 50.809  AVERAGE MISS PENALTY: 0

LLC7 TOTAL     ACCESS: 232024  HIT:  7903  MISS: 224121  HIT %: 3.40611  MISS %: 96.5939  AVERAGE MISS PENALTY: 126.676
LLC7 LOAD      ACCESS:  5300  HIT:   865  MISS:  4435  HIT %: 16.3208  MISS %: 83.6792  AVERAGE MISS PENALTY: 194.337
LLC7 RFO       ACCESS:    49  HIT:     0  MISS:    49  HIT %:     0  MISS %:   100  AVERAGE MISS PENALTY: 244.735
LLC7 PREFETCH  ACCESS: 223563  HIT:  5291  MISS: 218272  HIT %: 2.36667  MISS %: 97.6333  AVERAGE MISS PENALTY: 126.067
LLC7 WRITEBACK ACCESS:  3112  HIT:  1747  MISS:  1365  HIT %: 56.1375  MISS %: 43.8625  AVERAGE MISS PENALTY: 0

Total Rob stall cycles : 	460362195
Total Load Rob Stall cycles : 	34127912
Average Rob Stall cycles : 	 8
Average Load Rob Stall cycles : 	 11

CPU 1 cumulative IPC: 0.396955 instructions: 200204334 cycles: 504350365
ITLB TOTAL     ACCESS: 22851164  HIT: 22851164  MISS:     0  HIT %:   100  MISS %:     0  AVERAGE MISS PENALTY: 0
ITLB LOAD      ACCESS: 22851164  HIT: 22851164  MISS:     0  HIT %:   100  MISS %:     0  AVERAGE MISS PENALTY: 0
ITLB RFO       ACCESS:     0  HIT:     0  MISS:     0  HIT %:     0  MISS %:     0  AVERAGE MISS PENALTY: 0
ITLB PREFETCH  ACCESS:     0  HIT:     0  MISS:     0  HIT %:     0  MISS %:     0  AVERAGE MISS PENALTY: 0
ITLB WRITEBACK ACCESS:     0  HIT:     0  MISS:     0  HIT %:     0  MISS %:     0  AVERAGE MISS PENALTY: 0

DTLB TOTAL     ACCESS: 63774295  HIT: 63711310  MISS: 62985  HIT %: 99.9012  MISS %: 0.0987624  AVERAGE MISS PENALTY: 75.3719
DTLB LOAD      ACCESS: 41312863  HIT: 41250043  MISS: 62820  HIT %: 99.8479  MISS %: 0.152059  AVERAGE MISS PENALTY: 75.481
DTLB RFO       ACCESS: 22461432  HIT: 22461267  MISS:   165  HIT %: 99.9993  MISS %: 0.000734593  AVERAGE MISS PENALTY: 33.8485
DTLB PREFETCH  ACCESS:     0  HIT:     0  MISS:     0  HIT %:     0  MISS %:     0  AVERAGE MISS PENALTY: 0
DTLB WRITEBACK ACCESS:     0  HIT:     0  MISS:     0  HIT %:     0  MISS %:     0  AVERAGE MISS PENALTY: 0

STLB TOTAL     ACCESS: 62985  HIT: 21363  MISS: 41622  HIT %: 33.9176  MISS %: 66.0824  AVERAGE MISS PENALTY: 100
STLB LOAD      ACCESS: 62820  HIT: 21239  MISS: 41581  HIT %: 33.8093  MISS %: 66.1907  AVERAGE MISS PENALTY: 100
STLB RFO       ACCESS:   165  HIT:   124  MISS:    41  HIT %: 75.1515  MISS %: 24.8485  AVERAGE MISS PENALTY: 100
STLB PREFETCH  ACCESS:     0  HIT:     0  MISS:     0  HIT %:     0  MISS %:     0  AVERAGE MISS PENALTY: 0
STLB WRITEBACK ACCESS:     0  HIT:     0  MISS:     0  HIT %:     0  MISS %:     0  AVERAGE MISS PENALTY: 0

L1D TOTAL     ACCESS: 109159968  HIT: 105621557  MISS: 3538411  HIT %: 96.7585  MISS %: 3.24149  AVERAGE MISS PENALTY: 567145
L1D LOAD      ACCESS: 39921361  HIT: 39753295  MISS: 168066  HIT %: 99.579  MISS %: 0.420993  AVERAGE MISS PENALTY: 1.18589e+07
L1D RFO       ACCESS: 22579211  HIT: 22577911  MISS:  1300  HIT %: 99.9942  MISS %: 0.00575751  AVERAGE MISS PENALTY: 1.04748e+07
L1D PREFETCH  ACCESS: 46659396  HIT: 43290351  MISS: 3369045  HIT %: 92.7795  MISS %: 7.22051  AVERAGE MISS PENALTY: 30.2446
L1D WRITEBACK ACCESS:     0  HIT:     0  MISS:     0  HIT %:     0  MISS %:     0  AVERAGE MISS PENALTY: 0

L1I TOTAL     ACCESS: 35369436  HIT: 35369436  MISS:     0  HIT %:   100  MISS %:     0  AVERAGE MISS PENALTY: 0
L1I LOAD      ACCESS: 35369436  HIT: 35369436  MISS:     0  HIT %:   100  MISS %:     0  AVERAGE MISS PENALTY: 0
L1I RFO       ACCESS:     0  HIT:     0  MISS:     0  HIT %:     0  MISS %:     0  AVERAGE MISS PENALTY: 0
L1I PREFETCH  ACCESS:     0  HIT:     0  MISS:     0  HIT %:     0  MISS %:     0  AVERAGE MISS PENALTY: 0
L1I WRITEBACK ACCESS:     0  HIT:     0  MISS:     0  HIT %:     0  MISS %:     0  AVERAGE MISS PENALTY: 0

L2C TOTAL     ACCESS: 9092853  HIT: 7265475  MISS: 1827378  HIT %: 79.9031  MISS %: 20.0969  AVERAGE MISS PENALTY: 751364
L2C LOAD      ACCESS: 167489  HIT: 99434  MISS: 68055  HIT %: 59.3675  MISS %: 40.6325  AVERAGE MISS PENALTY: 2.0171e+07
L2C RFO       ACCESS:  1270  HIT:   725  MISS:   545  HIT %: 57.0866  MISS %: 42.9134  AVERAGE MISS PENALTY: 228.461
L2C PREFETCH  ACCESS: 8882718  HIT: 7124195  MISS: 1758523  HIT %: 80.2029  MISS %: 19.7971  AVERAGE MISS PENALTY: 166.032
L2C WRITEBACK ACCESS: 41376  HIT: 41121  MISS:   255  HIT %: 99.3837  MISS %: 0.616299  AVERAGE MISS PENALTY: 0


LLC0 TOTAL     ACCESS: 230328  HIT:  6733  MISS: 223595  HIT %: 2.92322  MISS %: 97.0768  AVERAGE MISS PENALTY: 135.264
LLC0 LOAD      ACCESS: 29243  HIT:   546  MISS: 28697  HIT %: 1.86711  MISS %: 98.1329  AVERAGE MISS PENALTY: 150.422
LLC0 RFO       ACCESS:    84  HIT:     6  MISS:    78  HIT %: 7.14286  MISS %: 92.8571  AVERAGE MISS PENALTY: 199.897
LLC0 PREFETCH  ACCESS: 198130  HIT:  4767  MISS: 193363  HIT %: 2.406  MISS %: 97.594  AVERAGE MISS PENALTY: 134.008
LLC0 WRITEBACK ACCESS:  2871  HIT:  1414  MISS:  1457  HIT %: 49.2511  MISS %: 50.7489  AVERAGE MISS PENALTY: 0

LLC1 TOTAL     ACCESS: 231617  HIT:  7207  MISS: 224410  HIT %: 3.1116  MISS %: 96.8884  AVERAGE MISS PENALTY: 134.295
LLC1 LOAD      ACCESS:  5280  HIT:   686  MISS:  4594  HIT %: 12.9924  MISS %: 87.0076  AVERAGE MISS PENALTY: 188.29
LLC1 RFO       ACCESS:    70  HIT:    11  MISS:    59  HIT %: 15.7143  MISS %: 84.2857  AVERAGE MISS PENALTY: 234.695
LLC1 PREFETCH  ACCESS: 223436  HIT:  5183  MISS: 218253  HIT %: 2.31968  MISS %: 97.6803  AVERAGE MISS PENALTY: 134.056
LLC1 WRITEBACK ACCESS:  2831  HIT:  1327  MISS:  1504  HIT %: 46.8739  MISS %: 53.1261  AVERAGE MISS PENALTY: 0

LLC2 TOTAL     ACCESS: 230621  HIT:  6505  MISS: 224116  HIT %: 2.82065  MISS %: 97.1794  AVERAGE MISS PENALTY: 131.445
LLC2 LOAD      ACCESS:  4941  HIT:   549  MISS:  4392  HIT %: 11.1111  MISS %: 88.8889  AVERAGE MISS PENALTY: 184.626
LLC2 RFO       ACCESS:    84  HIT:    21  MISS:    63  HIT %:    25  MISS %:    75  AVERAGE MISS PENALTY: 198.286
LLC2 PREFETCH  ACCESS: 222834  HIT:  4711  MISS: 218123  HIT %: 2.11413  MISS %: 97.8859  AVERAGE MISS PENALTY: 131.281
LLC2 WRITEBACK ACCESS:  2762  HIT:  1224  MISS:  1538  HIT %: 44.3157  MISS %: 55.6843  AVERAGE MISS PENALTY: 0

LLC3 TOTAL     ACCESS: 231566  HIT:  7235  MISS: 224331  HIT %: 3.12438  MISS %: 96.8756  AVERAGE MISS PENALTY: 126.417
LLC3 LOAD      ACCESS:  5595  HIT:   986  MISS:  4609  HIT %: 17.6229  MISS %: 82.3771  AVERAGE MISS PENALTY: 187.236
LLC3 RFO       ACCESS:    77  HIT:    10  MISS:    67  HIT %: 12.987  MISS %: 87.013  AVERAGE MISS PENALTY: 202.164
LLC3 PREFETCH  ACCESS: 222990  HIT:  4819  MISS: 218171  HIT %: 2.16108  MISS %: 97.8389  AVERAGE MISS PENALTY: 125.969
LLC3 WRITEBACK ACCESS:  2904  HIT:  1420  MISS:  1484  HIT %: 48.8981  MISS %: 51.1019  AVERAGE MISS PENALTY: 0

LLC4 TOTAL     ACCESS: 231831  HIT:  7381  MISS: 224450  HIT %: 3.18378  MISS %: 96.8162  AVERAGE MISS PENALTY: 133.769
[...]
 TIMELY PREFETCHES:       1023 LATE PREFETCHES: 0 DROPPED PREFETCHES: 0
LLC1 AVERAGE MISS LATENCY: 133.724 cycles
LLC2 TOTAL     ACCESS: 240154  HIT: 16363  MISS: 223791  HIT %: 6.81354  MISS %: 93.1865  AVERAGE MISS PENALTY: 130.099
LLC2 LOAD      ACCESS:  4694  HIT:   314  MISS:  4380  HIT %: 6.68939  MISS %: 93.3106  AVERAGE MISS PENALTY: 186.528
LLC2 RFO       ACCESS:    67  HIT:     9  MISS:    58  HIT %: 13.4328  MISS %: 86.5672  AVERAGE MISS PENALTY: 214.638
LLC2 PREFETCH  ACCESS: 232824  HIT: 14907  MISS: 217917  HIT %: 6.40269  MISS %: 93.5973  AVERAGE MISS PENALTY: 129.799
LLC2 WRITEBACK ACCESS:  2569  HIT:  1133  MISS:  1436  HIT %: 44.1028  MISS %: 55.8972  AVERAGE MISS PENALTY: 0
LLC2 PREFETCH  REQUESTED:     0  ISSUED:     0  USEFUL:   916  USELESS: 1744140
 USEFUL LOAD PREFETCHES:        916 PREFETCH ISSUED TO LOWER LEVEL:    1745130  ACCURACY: 0.0524889
 TIMELY PREFETCHES:        916 LATE PREFETCHES: 0 DROPPED PREFETCHES: 0
LLC2 AVERAGE MISS LATENCY: 130.099 cycles
LLC3 TOTAL     ACCESS: 240298  HIT: 16380  MISS: 223918  HIT %: 6.81654  MISS %: 93.1835  AVERAGE MISS PENALTY: 124.974
LLC3 LOAD      ACCESS:  4866  HIT:   337  MISS:  4529  HIT %: 6.92561  MISS %: 93.0744  AVERAGE MISS PENALTY: 187.276
LLC3 RFO       ACCESS:    71  HIT:     7  MISS:    64  HIT %: 9.85915  MISS %: 90.1408  AVERAGE MISS PENALTY: 211.328
LLC3 PREFETCH  ACCESS: 232773  HIT: 14873  MISS: 217900  HIT %: 6.38949  MISS %: 93.6105  AVERAGE MISS PENALTY: 124.471
LLC3 WRITEBACK ACCESS:  2588  HIT:  1163  MISS:  1425  HIT %: 44.9382  MISS %: 55.0618  AVERAGE MISS PENALTY: 0
LLC3 PREFETCH  REQUESTED:     0  ISSUED:     0  USEFUL:  1172  USELESS: 1744267
 USEFUL LOAD PREFETCHES:       1172 PREFETCH ISSUED TO LOWER LEVEL:    1753453  ACCURACY: 0.0668395
 TIMELY PREFETCHES:       1172 LATE PREFETCHES: 0 DROPPED PREFETCHES: 0
LLC3 AVERAGE MISS LATENCY: 124.974 cycles
LLC4 TOTAL     ACCESS: 240492  HIT: 16451  MISS: 224041  HIT %: 6.84056  MISS %: 93.1594  AVERAGE MISS PENALTY: 133.179
LLC4 LOAD      ACCESS:  4735  HIT:   436  MISS:  4299  HIT %: 9.20803  MISS %: 90.792  AVERAGE MISS PENALTY: 189.461
LLC4 RFO       ACCESS:    64  HIT:     8  MISS:    56  HIT %:  12.5  MISS %:  87.5  AVERAGE MISS PENALTY: 231.018
LLC4 PREFETCH  ACCESS: 233057  HIT: 14829  MISS: 218228  HIT %: 6.36282  MISS %: 93.6372  AVERAGE MISS PENALTY: 132.935
LLC4 WRITEBACK ACCESS:  2636  HIT:  1178  MISS:  1458  HIT %: 44.6889  MISS %: 55.3111  AVERAGE MISS PENALTY: 0
LLC4 PREFETCH  REQUESTED:     0  ISSUED:     0  USEFUL:  1396  USELESS: 1746485
 USEFUL LOAD PREFETCHES:       1396 PREFETCH ISSUED TO LOWER LEVEL:    1747949  ACCURACY: 0.079865
 TIMELY PREFETCHES:       1396 LATE PREFETCHES: 0 DROPPED PREFETCHES: 0
LLC4 AVERAGE MISS LATENCY: 133.179 cycles
LLC5 TOTAL     ACCESS: 240712  HIT: 16652  MISS: 224060  HIT %: 6.91781  MISS %: 93.0822  AVERAGE MISS PENALTY: 134.731
LLC5 LOAD      ACCESS:  4421  HIT:   320  MISS:  4101  HIT %: 7.23818  MISS %: 92.7618  AVERAGE MISS PENALTY: 194.414
LLC5 RFO       ACCESS:    56  HIT:     3  MISS:    53  HIT %: 5.35714  MISS %: 94.6429  AVERAGE MISS PENALTY: 229.491
LLC5 PREFETCH  ACCESS: 233562  HIT: 15089  MISS: 218473  HIT %: 6.46038  MISS %: 93.5396  AVERAGE MISS PENALTY: 134.471
LLC5 WRITEBACK ACCESS:  2673  HIT:  1240  MISS:  1433  HIT %: 46.3898  MISS %: 53.6102  AVERAGE MISS PENALTY: 0
LLC5 PREFETCH  REQUESTED:     0  ISSUED:     0  USEFUL:   969  USELESS: 1748946
 USEFUL LOAD PREFETCHES:        969 PREFETCH ISSUED TO LOWER LEVEL:    1764259  ACCURACY: 0.0549239
 TIMELY PREFETCHES:        969 LATE PREFETCHES: 0 DROPPED PREFETCHES: 0
LLC5 AVERAGE MISS LATENCY: 134.731 cycles
LLC6 TOTAL     ACCESS: 240322  HIT: 16610  MISS: 223712  HIT %: 6.91156  MISS %: 93.0884  AVERAGE MISS PENALTY: 123.43
LLC6 LOAD      ACCESS:  4317  HIT:   296  MISS:  4021  HIT %: 6.85661  MISS %: 93.1434  AVERAGE MISS PENALTY: 190.892
LLC6 RFO       ACCESS:    54  HIT:     0  MISS:    54  HIT %:     0  MISS %:   100  AVERAGE MISS PENALTY: 228.148
LLC6 PREFETCH  ACCESS: 233273  HIT: 15087  MISS: 218186  HIT %: 6.46753  MISS %: 93.5325  AVERAGE MISS PENALTY: 122.981
LLC6 WRITEBACK ACCESS:  2678  HIT:  1227  MISS:  1451  HIT %: 45.8178  MISS %: 54.1822  AVERAGE MISS PENALTY: 0
LLC6 PREFETCH  REQUESTED:     0  ISSUED:     0  USEFUL:  1010  USELESS: 1746028
 USEFUL LOAD PREFETCHES:       1010 PREFETCH ISSUED TO LOWER LEVEL:    1747159  ACCURACY: 0.0578081
 TIMELY PREFETCHES:       1010 LATE PREFETCHES: 0 DROPPED PREFETCHES: 0
LLC6 AVERAGE MISS LATENCY: 123.43 cycles
LLC7 TOTAL     ACCESS: 240440  HIT: 16594  MISS: 223846  HIT %: 6.90151  MISS %: 93.0985  AVERAGE MISS PENALTY: 127.169
LLC7 LOAD      ACCESS:  4737  HIT:   330  MISS:  4407  HIT %: 6.96643  MISS %: 93.0336  AVERAGE MISS PENALTY: 193.042
LLC7 RFO       ACCESS:    49  HIT:     1  MISS:    48  HIT %: 2.04082  MISS %: 97.9592  AVERAGE MISS PENALTY: 187.771
LLC7 PREFETCH  ACCESS: 233021  HIT: 15079  MISS: 217942  HIT %: 6.47109  MISS %: 93.5289  AVERAGE MISS PENALTY: 126.669
LLC7 WRITEBACK ACCESS:  2633  HIT:  1184  MISS:  1449  HIT %: 44.9677  MISS %: 55.0323  AVERAGE MISS PENALTY: 0
LLC7 PREFETCH  REQUESTED:     0  ISSUED:     0  USEFUL:   950  USELESS: 1745053
 USEFUL LOAD PREFETCHES:        950 PREFETCH ISSUED TO LOWER LEVEL:    1769294  ACCURACY: 0.0536937
 TIMELY PREFETCHES:        950 LATE PREFETCHES: 0 DROPPED PREFETCHES: 0
LLC7 AVERAGE MISS LATENCY: 127.169 cycles
ROI Average ROB Stall Cycles:	8.62659
ROI Total ROB Stalls Cycles:	459871896
ROI TOTAL ROB counter      :	53308647
ROI Average Load ROB Stall Cycles:	11.7548
ROI Total Load ROB Stalls Cycle  :	34098403
ROI Total Load ROB stalls Counter:	2900817
Major fault: 0 Minor fault: 10446

CPU 7 cumulative IPC: 0.396974 instructions: 200000000 cycles: 503811590
ITLB TOTAL     ACCESS: 22827905  HIT: 22827905  MISS:     0  HIT %:   100  MISS %:     0  AVERAGE MISS PENALTY: 0
ITLB LOAD      ACCESS: 22827905  HIT: 22827905  MISS:     0  HIT %:   100  MISS %:     0  AVERAGE MISS PENALTY: 0
ITLB RFO       ACCESS:     0  HIT:     0  MISS:     0  HIT %:     0  MISS %:     0  AVERAGE MISS PENALTY: 0
ITLB PREFETCH  ACCESS:     0  HIT:     0  MISS:     0  HIT %:     0  MISS %:     0  AVERAGE MISS PENALTY: 0
ITLB WRITEBACK ACCESS:     0  HIT:     0  MISS:     0  HIT %:     0  MISS %:     0  AVERAGE MISS PENALTY: 0
ITLB PREFETCH  REQUESTED:     0  ISSUED:     0  USEFUL:     0  USELESS:     0
 USEFUL LOAD PREFETCHES:          0 PREFETCH ISSUED TO LOWER LEVEL:          0  ACCURACY: -nan
 TIMELY PREFETCHES:          0 LATE PREFETCHES: 0 DROPPED PREFETCHES: 0
ITLB AVERAGE MISS LATENCY: -nan cycles
DTLB TOTAL     ACCESS: 63708891  HIT: 63645960  MISS: 62931  HIT %: 99.9012  MISS %: 0.098779  AVERAGE MISS PENALTY: 75.387
DTLB LOAD      ACCESS: 41270502  HIT: 41207736  MISS: 62766  HIT %: 99.8479  MISS %: 0.152084  AVERAGE MISS PENALTY: 75.4962
DTLB RFO       ACCESS: 22438389  HIT: 22438224  MISS:   165  HIT %: 99.9993  MISS %: 0.000735347  AVERAGE MISS PENALTY: 33.8485
DTLB PREFETCH  ACCESS:     0  HIT:     0  MISS:     0  HIT %:     0  MISS %:     0  AVERAGE MISS PENALTY: 0
DTLB WRITEBACK ACCESS:     0  HIT:     0  MISS:     0  HIT %:     0  MISS %:     0  AVERAGE MISS PENALTY: 0
DTLB PREFETCH  REQUESTED:     0  ISSUED:     0  USEFUL:     0  USELESS:     0
 USEFUL LOAD PREFETCHES:          0 PREFETCH ISSUED TO LOWER LEVEL:          0  ACCURACY: -nan
 TIMELY PREFETCHES:          0 LATE PREFETCHES: 0 DROPPED PREFETCHES: 0
DTLB AVERAGE MISS LATENCY: 75.387 cycles
STLB TOTAL     ACCESS: 62931  HIT: 21343  MISS: 41588  HIT %: 33.9149  MISS %: 66.0851  AVERAGE MISS PENALTY: 100
STLB LOAD      ACCESS: 62766  HIT: 21219  MISS: 41547  HIT %: 33.8065  MISS %: 66.1935  AVERAGE MISS PENALTY: 100
STLB RFO       ACCESS:   165  HIT:   124  MISS:    41  HIT %: 75.1515  MISS %: 24.8485  AVERAGE MISS PENALTY: 100
STLB PREFETCH  ACCESS:     0  HIT:     0  MISS:     0  HIT %:     0  MISS %:     0  AVERAGE MISS PENALTY: 0
STLB WRITEBACK ACCESS:     0  HIT:     0  MISS:     0  HIT %:     0  MISS %:     0  AVERAGE MISS PENALTY: 0
STLB PREFETCH  REQUESTED:     0  ISSUED:     0  USEFUL:     0  USELESS:     0
 USEFUL LOAD PREFETCHES:          0 PREFETCH ISSUED TO LOWER LEVEL:          0  ACCURACY: -nan
 TIMELY PREFETCHES:          0 LATE PREFETCHES: 0 DROPPED PREFETCHES: 0
STLB AVERAGE MISS LATENCY: 100 cycles
L1D TOTAL     ACCESS: 109058047  HIT: 105523269  MISS: 3534778  HIT %: 96.7588  MISS %: 3.24119  AVERAGE MISS PENALTY: 563107
L1D LOAD      ACCESS: 39880605  HIT: 39712761  MISS: 167844  HIT %: 99.5791  MISS %: 0.420866  AVERAGE MISS PENALTY: 1.17868e+07
L1D RFO       ACCESS: 22556305  HIT: 22555010  MISS:  1295  HIT %: 99.9943  MISS %: 0.00574119  AVERAGE MISS PENALTY: 9.28046e+06
L1D PREFETCH  ACCESS: 46621137  HIT: 43255498  MISS: 3365639  HIT %: 92.7809  MISS %: 7.21913  AVERAGE MISS PENALTY: 30.0697
L1D WRITEBACK ACCESS:     0  HIT:     0  MISS:     0  HIT %:     0  MISS %:     0  AVERAGE MISS PENALTY: 0
L1D PREFETCH  REQUESTED: 48240980  ISSUED: 47984630  USEFUL: 3066501  USELESS: 299196
 USEFUL LOAD PREFETCHES:    3066501 PREFETCH ISSUED TO LOWER LEVEL:    4100205  ACCURACY: 74.789
 TIMELY PREFETCHES:    3066501 LATE PREFETCHES: 11757 DROPPED PREFETCHES: 256350
L1D AVERAGE MISS LATENCY: 3433 cycles
L1I TOTAL     ACCESS: 35333391  HIT: 35333391  MISS:     0  HIT %:   100  MISS %:     0  AVERAGE MISS PENALTY: 0
L1I LOAD      ACCESS: 35333391  HIT: 35333391  MISS:     0  HIT %:   100  MISS %:     0  AVERAGE MISS PENALTY: 0
L1I RFO       ACCESS:     0  HIT:     0  MISS:     0  HIT %:     0  MISS %:     0  AVERAGE MISS PENALTY: 0
L1I PREFETCH  ACCESS:     0  HIT:     0  MISS:     0  HIT %:     0  MISS %:     0  AVERAGE MISS PENALTY: 0
L1I WRITEBACK ACCESS:     0  HIT:     0  MISS:     0  HIT %:     0  MISS %:     0  AVERAGE MISS PENALTY: 0
L1I PREFETCH  REQUESTED:     0  ISSUED:     0  USEFUL:     0  USELESS:     0
 USEFUL LOAD PREFETCHES:          0 PREFETCH ISSUED TO LOWER LEVEL:          0  ACCURACY: -nan
 TIMELY PREFETCHES:          0 LATE PREFETCHES: 0 DROPPED PREFETCHES: 0
L1I AVERAGE MISS LATENCY: -nan cycles
L2C TOTAL     ACCESS: 9091446  HIT: 7288347  MISS: 1803099  HIT %: 80.1671  MISS %: 19.8329  AVERAGE MISS PENALTY: 745494
L2C LOAD      ACCESS: 167212  HIT: 102809  MISS: 64403  HIT %: 61.4842  MISS %: 38.5158  AVERAGE MISS PENALTY: 2.08672e+07
L2C RFO       ACCESS:  1269  HIT:   792  MISS:   477  HIT %: 62.4113  MISS %: 37.5887  AVERAGE MISS PENALTY: 241.992
L2C PREFETCH  ACCESS: 8881607  HIT: 7143402  MISS: 1738205  HIT %: 80.4292  MISS %: 19.5708  AVERAGE MISS PENALTY: 166.232
L2C WRITEBACK ACCESS: 41358  HIT: 41344  MISS:    14  HIT %: 99.9661  MISS %: 0.0338508  AVERAGE MISS PENALTY: 0
L2C PREFETCH  REQUESTED: 6441273  ISSUED: 6440296  USEFUL: 15247  USELESS: 1723415
 USEFUL LOAD PREFETCHES:      15247 PREFETCH ISSUED TO LOWER LEVEL:    1895937  ACCURACY: 0.804193
 TIMELY PREFETCHES:      15247 LATE PREFETCHES: 4713 DROPPED PREFETCHES: 977
L2C AVERAGE MISS LATENCY: 167.458 cycles
LLC0 TOTAL     ACCESS: 227422  HIT:  4126  MISS: 223296  HIT %: 1.81425  MISS %: 98.1858  AVERAGE MISS PENALTY: 134.732
LLC0 LOAD      ACCESS: 28969  HIT:   346  MISS: 28623  HIT %: 1.19438  MISS %: 98.8056  AVERAGE MISS PENALTY: 151.44
LLC0 RFO       ACCESS:    79  HIT:     1  MISS:    78  HIT %: 1.26582  MISS %: 98.7342  AVERAGE MISS PENALTY: 210.538
LLC0 PREFETCH  ACCESS: 195770  HIT:  2631  MISS: 193139  HIT %: 1.34392  MISS %: 98.6561  AVERAGE MISS PENALTY: 133.241
LLC0 WRITEBACK ACCESS:  2604  HIT:  1148  MISS:  1456  HIT %: 44.086  MISS %: 55.914  AVERAGE MISS PENALTY: 0
LLC0 PREFETCH  REQUESTED:     0  ISSUED:     0  USEFUL:   967  USELESS: 1546647
 USEFUL LOAD PREFETCHES:        967 PREFETCH ISSUED TO LOWER LEVEL:    1547469  ACCURACY: 0.0624891
 TIMELY PREFETCHES:        967 LATE PREFETCHES: 0 DROPPED PREFETCHES: 0
LLC0 AVERAGE MISS LATENCY: 134.732 cycles
Deadblocks : 228872 Deadblock percentage : 799.609

LLC1 TOTAL     ACCESS: 228318  HIT:  4323  MISS: 223995  HIT %: 1.89341  MISS %: 98.1066  AVERAGE MISS PENALTY: 133.358
LLC1 LOAD      ACCESS:  4859  HIT:   289  MISS:  4570  HIT %: 5.94773  MISS %: 94.0523  AVERAGE MISS PENALTY: 191.242
LLC1 RFO       ACCESS:    56  HIT:     3  MISS:    53  HIT %: 5.35714  MISS %: 94.6429  AVERAGE MISS PENALTY: 234.962
LLC1 PREFETCH  ACCESS: 220749  HIT:  2860  MISS: 217889  HIT %: 1.29559  MISS %: 98.7044  AVERAGE MISS PENALTY: 133.027
LLC1 WRITEBACK ACCESS:  2654  HIT:  1171  MISS:  1483  HIT %: 44.1221  MISS %: 55.8779  AVERAGE MISS PENALTY: 0
LLC1 PREFETCH  REQUESTED:     0  ISSUED:     0  USEFUL:  1023  USELESS: 1744897
 USEFUL LOAD PREFETCHES:       1023 PREFETCH ISSUED TO LOWER LEVEL:    1751764  ACCURACY: 0.0583983
 TIMELY PREFETCHES:       1023 LATE PREFETCHES: 0 DROPPED PREFETCHES: 0
LLC1 AVERAGE MISS LATENCY: 133.358 cycles
LLC2 TOTAL     ACCESS: 227985  HIT:  4256  MISS: 223729  HIT %: 1.86679  MISS %: 98.1332  AVERAGE MISS PENALTY: 130.434
LLC2 LOAD      ACCESS:  4663  HIT:   280  MISS:  4383  HIT %: 6.00472  MISS %: 93.9953  AVERAGE MISS PENALTY: 187.283
LLC2 RFO       ACCESS:    60  HIT:     4  MISS:    56  HIT %: 6.66667  MISS %: 93.3333  AVERAGE MISS PENALTY: 201.804
LLC2 PREFETCH  ACCESS: 220641  HIT:  2834  MISS: 217807  HIT %: 1.28444  MISS %: 98.7156  AVERAGE MISS PENALTY: 130.159
LLC2 WRITEBACK ACCESS:  2621  HIT:  1138  MISS:  1483  HIT %: 43.4185  MISS %: 56.5815  AVERAGE MISS PENALTY: 0
LLC2 PREFETCH  REQUESTED:     0  ISSUED:     0  USEFUL:   916  USELESS: 1744140
 USEFUL LOAD PREFETCHES:        916 PREFETCH ISSUED TO LOWER LEVEL:    1745130  ACCURACY: 0.0524889
 TIMELY PREFETCHES:        916 LATE PREFETCHES: 0 DROPPED PREFETCHES: 0
LLC2 AVERAGE MISS LATENCY: 130.434 cycles
LLC3 TOTAL     ACCESS: 228280  HIT:  4307  MISS: 223973  HIT %: 1.88672  MISS %: 98.1133  AVERAGE MISS PENALTY: 125.267
LLC3 LOAD      ACCESS:  4919  HIT:   365  MISS:  4554  HIT %: 7.42021  MISS %: 92.5798  AVERAGE MISS PENALTY: 191.334
LLC3 RFO       ACCESS:    66  HIT:     2  MISS:    64  HIT %: 3.0303  MISS %: 96.9697  AVERAGE MISS PENALTY: 190.641
LLC3 PREFETCH  ACCESS: 220614  HIT:  2725  MISS: 217889  HIT %: 1.23519  MISS %: 98.7648  AVERAGE MISS PENALTY: 124.71
LLC3 WRITEBACK ACCESS:  2681  HIT:  1215  MISS:  1466  HIT %: 45.3189  MISS %: 54.6811  AVERAGE MISS PENALTY: 0
LLC3 PREFETCH  REQUESTED:     0  ISSUED:     0  USEFUL:  1172  USELESS: 1744267
 USEFUL LOAD PREFETCHES:       1172 PREFETCH ISSUED TO LOWER LEVEL:    1753453  ACCURACY: 0.0668395
 TIMELY PREFETCHES:       1172 LATE PREFETCHES: 0 DROPPED PREFETCHES: 0
LLC3 AVERAGE MISS LATENCY: 125.267 cycles
LLC4 TOTAL     ACCESS: 228268  HIT:  4256  MISS: 224012  HIT %: 1.86448  MISS %: 98.1355  AVERAGE MISS PENALTY: 132.733
LLC4 LOAD      ACCESS:  4753  HIT:   392  MISS:  4361  HIT %: 8.24742  MISS %: 91.7526  AVERAGE MISS PENALTY: 191.625
LLC4 RFO       ACCESS:    59  HIT:     1  MISS:    58  HIT %: 1.69492  MISS %: 98.3051  AVERAGE MISS PENALTY: 220.914
LLC4 PREFETCH  ACCESS: 220744  HIT:  2697  MISS: 218047  HIT %: 1.22178  MISS %: 98.7782  AVERAGE MISS PENALTY: 132.473
LLC4 WRITEBACK ACCESS:  2712  HIT:  1166  MISS:  1546  HIT %: 42.9941  MISS %: 57.0059  AVERAGE MISS PENALTY: 0
LLC4 PREFETCH  REQUESTED:     0  ISSUED:     0  USEFUL:  1396  USELESS: 1746485
 USEFUL LOAD PREFETCHES:       1396 PREFETCH ISSUED TO LOWER LEVEL:    1747949  ACCURACY: 0.079865
 TIMELY PREFETCHES:       1396 LATE PREFETCHES: 0 DROPPED PREFETCHES: 0
LLC4 AVERAGE MISS LATENCY: 132.733 cycles
LLC5 TOTAL     ACCESS: 228354  HIT:  4343  MISS: 224011  HIT %: 1.90187  MISS %: 98.0981  AVERAGE MISS PENALTY: 134.121
LLC5 LOAD      ACCESS:  4384  HIT:   263  MISS:  4121  HIT %: 5.99909  MISS %: 94.0009  AVERAGE MISS PENALTY: 194.527
LLC5 RFO       ACCESS:    53  HIT:     1  MISS:    52  HIT %: 1.88679  MISS %: 98.1132  AVERAGE MISS PENALTY: 180.135
LLC5 PREFETCH  ACCESS: 221203  HIT:  2855  MISS: 218348  HIT %: 1.29067  MISS %: 98.7093  AVERAGE MISS PENALTY: 133.885
LLC5 WRITEBACK ACCESS:  2714  HIT:  1224  MISS:  1490  HIT %: 45.0995  MISS %: 54.9005  AVERAGE MISS PENALTY: 0
LLC5 PREFETCH  REQUESTED:     0  ISSUED:     0  USEFUL:   969  USELESS: 1748946
 USEFUL LOAD PREFETCHES:        969 PREFETCH ISSUED TO LOWER LEVEL:    1764259  ACCURACY: 0.0549239
 TIMELY PREFETCHES:        969 LATE PREFETCHES: 0 DROPPED PREFETCHES: 0
LLC5 AVERAGE MISS LATENCY: 134.121 cycles
LLC6 TOTAL     ACCESS: 227833  HIT:  4185  MISS: 223648  HIT %: 1.83687  MISS %: 98.1631  AVERAGE MISS PENALTY: 124.01
LLC6 LOAD      ACCESS:  4333  HIT:   241  MISS:  4092  HIT %: 5.56197  MISS %: 94.438  AVERAGE MISS PENALTY: 192.84
LLC6 RFO       ACCESS:    55  HIT:     0  MISS:    55  HIT %:     0  MISS %:   100  AVERAGE MISS PENALTY: 194.636
LLC6 PREFETCH  ACCESS: 220722  HIT:  2754  MISS: 217968  HIT %: 1.24772  MISS %: 98.7523  AVERAGE MISS PENALTY: 123.572
LLC6 WRITEBACK ACCESS:  2723  HIT:  1190  MISS:  1533  HIT %: 43.7018  MISS %: 56.2982  AVERAGE MISS PENALTY: 0
LLC6 PREFETCH  REQUESTED:     0  ISSUED:     0  USEFUL:  1010  USELESS: 1746028
 USEFUL LOAD PREFETCHES:       1010 PREFETCH ISSUED TO LOWER LEVEL:    1747159  ACCURACY: 0.0578081
 TIMELY PREFETCHES:       1010 LATE PREFETCHES: 0 DROPPED PREFETCHES: 0
LLC6 AVERAGE MISS LATENCY: 124.01 cycles
LLC7 TOTAL     ACCESS: 228030  HIT:  4185  MISS: 223845  HIT %: 1.83528  MISS %: 98.1647  AVERAGE MISS PENALTY: 127.498
LLC7 LOAD      ACCESS:  4691  HIT:   284  MISS:  4407  HIT %: 6.05415  MISS %: 93.9459  AVERAGE MISS PENALTY: 191.187
LLC7 RFO       ACCESS:    49  HIT:     0  MISS:    49  HIT %:     0  MISS %:   100  AVERAGE MISS PENALTY: 210.816
LLC7 PREFETCH  ACCESS: 220593  HIT:  2706  MISS: 217887  HIT %: 1.22669  MISS %: 98.7733  AVERAGE MISS PENALTY: 127.07
LLC7 WRITEBACK ACCESS:  2697  HIT:  1195  MISS:  1502  HIT %: 44.3085  MISS %: 55.6915  AVERAGE MISS PENALTY: 0
LLC7 PREFETCH  REQUESTED:     0  ISSUED:     0  USEFUL:   950  USELESS: 1745053
 USEFUL LOAD PREFETCHES:        950 PREFETCH ISSUED TO LOWER LEVEL:    1769294  ACCURACY: 0.0536937
 TIMELY PREFETCHES:        950 LATE PREFETCHES: 0 DROPPED PREFETCHES: 0
LLC7 AVERAGE MISS LATENCY: 127.498 cycles
ROI Average ROB Stall Cycles:	8.62665
ROI Total ROB Stalls Cycles:	459866235
ROI TOTAL ROB counter      :	53307597
ROI Average Load ROB Stall Cycles:	11.7644
ROI Total Load ROB Stalls Cycle  :	34124671
ROI Total Load ROB stalls Counter:	2900683
Major fault: 0 Minor fault: 10446








Interconnect Stats 
LINK 0 BW : 0LINK 1 BW : 0LINK 2 BW : 0LINK 3 BW : 0LINK 4 BW : 0LINK 5 BW : 0LINK 6 BW : 0LINK 7 BW : 0
DRAM Statistics
 CHANNEL 0
 RQ ROW_BUFFER_HIT: 5286059  ROW_BUFFER_MISS: 1835995
 DBUS_CONGESTED: 1207420
 WQ ROW_BUFFER_HIT: 36619  ROW_BUFFER_MISS: 47722  FULL:     0

 CHANNEL 1
 RQ ROW_BUFFER_HIT: 5281183  ROW_BUFFER_MISS: 1850093
 DBUS_CONGESTED: 1207420
 WQ ROW_BUFFER_HIT: 36747  ROW_BUFFER_MISS: 47927  FULL:     0

 AVG_CONGESTED_CYCLE: 4
DRAM PAGES: 2097152
Allocated PAGES: 83568
L2C destructor called
L1D destructor called
L1I destructor called
STLB destructor called
DTLB destructor called
ITLB destructor called
L2C destructor called
L1D destructor called
L1I destructor called
STLB destructor called
DTLB destructor called
ITLB destructor called
L2C destructor called
L1D destructor called
L1I destructor called
STLB destructor called
DTLB destructor called
ITLB destructor called
L2C destructor called
L1D destructor called
L1I destructor called
STLB destructor called
DTLB destructor called
ITLB destructor called
L2C destructor called
L1D destructor called
L1I destructor called
STLB destructor called
DTLB destructor called
ITLB destructor called
L2C destructor called
L1D destructor called
L1I destructor called
STLB destructor called
DTLB destructor called
ITLB destructor called
L2C destructor called
L1D destructor called
L1I destructor called
STLB destructor called
DTLB destructor called
ITLB destructor called
L2C destructor called
L1D destructor called
L1I destructor called
STLB destructor called
DTLB destructor called
ITLB destructor called
