
*** ChampSim Multicore Out-of-Order Simulator ***

Warmup Instructions: 200000000
Simulation Instructions: 200000000
Number of CPUs: 8
threads:1

L1I Configuration:
L1I_SET:64
L1I_WAY:8
L1I_RQ_SIZE:64
L1I_WQ_SIZE:64
L1I_PQ_SIZE:8
L1I_MSHR_SIZE:8

L1D Configuration:
L1D_SET:64
L1D_WAY:12
L1D_RQ_SIZE:64
L1D_WQ_SIZE:64
L1D_PQ_SIZE:8
L1D_MSHR_SIZE:16

L2C Configuration:
L2C_SET:1024
L2C_WAY:8
L2C_RQ_SIZE:32
L2C_WQ_SIZE:32
L2C_PQ_SIZE:16
L2C_MSHR_SIZE:32

LLC Configuration:
LLC_SET:2048
LLC_WAY:16
LLC SLICES:8
LLC_RQ_SIZE:64
LLC_WQ_SIZE:64
LLC_PQ_SIZE:32
LLC_MSHR_SIZE:64

Interconnect OFF
Attacker deprioritize is: OFF
Off-chip DRAM Size: 8192 MB Channels: 2 Width: 64-bit Data Rate: 3200 MT/s
PAGE SIZE in KB: 4.000000 
PAGE SIZE in MB: 0.003906 
PAGE offset in bits: 12 
CEASER-S_LLC:0
MIRAGE : 1
CEASER_LATENCY:3
REMAP : OFF
Partitions : 1
Multi-Step : OFF
BFS : OFF

CPU 0 runs /home/anubhav/spec_2017/603.bwaves_s-1740B.champsimtrace.xz
CPU 1 runs /home/anubhav/spec_2017/603.bwaves_s-1740B.champsimtrace.xz
CPU 2 runs /home/anubhav/spec_2017/603.bwaves_s-1740B.champsimtrace.xz
CPU 3 runs /home/anubhav/spec_2017/603.bwaves_s-1740B.champsimtrace.xz
CPU 4 runs /home/anubhav/spec_2017/603.bwaves_s-1740B.champsimtrace.xz
CPU 5 runs /home/anubhav/spec_2017/603.bwaves_s-1740B.champsimtrace.xz
CPU 6 runs /home/anubhav/spec_2017/603.bwaves_s-1740B.champsimtrace.xz
CPU 7 runs /home/anubhav/spec_2017/603.bwaves_s-1740B.champsimtrace.xz
CPU 0 Bimodal branch predictor
Initialize Hawkeye state
Initialize Hawkeye state
Initialize Hawkeye state
Initialize Hawkeye state
Initialize Hawkeye state
Initialize Hawkeye state
Initialize Hawkeye state
Initialize Hawkeye state
CPU 1 Bimodal branch predictor
Initialize Hawkeye state
Initialize Hawkeye state
Initialize Hawkeye state
Initialize Hawkeye state
Initialize Hawkeye state
Initialize Hawkeye state
Initialize Hawkeye state
Initialize Hawkeye state
CPU 2 Bimodal branch predictor
Initialize Hawkeye state
Initialize Hawkeye state
Initialize Hawkeye state
Initialize Hawkeye state
Initialize Hawkeye state
Initialize Hawkeye state
Initialize Hawkeye state
Initialize Hawkeye state
CPU 3 Bimodal branch predictor
Initialize Hawkeye state
Initialize Hawkeye state
Initialize Hawkeye state
Initialize Hawkeye state
Initialize Hawkeye state
Initialize Hawkeye state
Initialize Hawkeye state
Initialize Hawkeye state
CPU 4 Bimodal branch predictor
Initialize Hawkeye state
Initialize Hawkeye state
Initialize Hawkeye state
Initialize Hawkeye state
Initialize Hawkeye state
Initialize Hawkeye state
Initialize Hawkeye state
Initialize Hawkeye state
CPU 5 Bimodal branch predictor
Initialize Hawkeye state
Initialize Hawkeye state
Initialize Hawkeye state
Initialize Hawkeye state
Initialize Hawkeye state
Initialize Hawkeye state
Initialize Hawkeye state
Initialize Hawkeye state
CPU 6 Bimodal branch predictor
Initialize Hawkeye state
Initialize Hawkeye state
Initialize Hawkeye state
Initialize Hawkeye state
Initialize Hawkeye state
Initialize Hawkeye state
Initialize Hawkeye state
Initialize Hawkeye state
CPU 7 Bimodal branch predictor
Initialize Hawkeye state
Initialize Hawkeye state
Initialize Hawkeye state
Initialize Hawkeye state
Initialize Hawkeye state
Initialize Hawkeye state
Initialize Hawkeye state
Initialize Hawkeye state
Heartbeat CPU 0 instructions: 10000002 cycles: 5311251 heartbeat IPC: 1.8828 cumulative IPC: 1.8828 (Simulation time: 0 hr 24 min 10 sec) 
 Total Blocks : 262144 Invalid Blocks : 761
Heartbeat CPU 2 instructions: 10000002 cycles: 5311333 heartbeat IPC: 1.88277 cumulative IPC: 1.88277 (Simulation time: 0 hr 24 min 10 sec) 
 Total Blocks : 262144 Invalid Blocks : 761
Heartbeat CPU 1 instructions: 10000002 cycles: 5311344 heartbeat IPC: 1.88276 cumulative IPC: 1.88276 (Simulation time: 0 hr 24 min 10 sec) 
 Total Blocks : 262144 Invalid Blocks : 761
Heartbeat CPU 7 instructions: 10000002 cycles: 5311413 heartbeat IPC: 1.88274 cumulative IPC: 1.88274 (Simulation time: 0 hr 24 min 10 sec) 
 Total Blocks : 262144 Invalid Blocks : 761
Heartbeat CPU 3 instructions: 10000002 cycles: 5311423 heartbeat IPC: 1.88274 cumulative IPC: 1.88274 (Simulation time: 0 hr 24 min 10 sec) 
 Total Blocks : 262144 Invalid Blocks : 761
Heartbeat CPU 6 instructions: 10000002 cycles: 5311466 heartbeat IPC: 1.88272 cumulative IPC: 1.88272 (Simulation time: 0 hr 24 min 10 sec) 
 Total Blocks : 262144 Invalid Blocks : 761
Heartbeat CPU 5 instructions: 10000002 cycles: 5311472 heartbeat IPC: 1.88272 cumulative IPC: 1.88272 (Simulation time: 0 hr 24 min 10 sec) 
 Total Blocks : 262144 Invalid Blocks : 761
Heartbeat CPU 4 instructions: 10000002 cycles: 5311473 heartbeat IPC: 1.88272 cumulative IPC: 1.88272 (Simulation time: 0 hr 24 min 10 sec) 
 Total Blocks : 262144 Invalid Blocks : 761
Heartbeat CPU 0 instructions: 20000002 cycles: 10622925 heartbeat IPC: 1.88265 cumulative IPC: 1.88272 (Simulation time: 0 hr 58 min 13 sec) 
 Total Blocks : 262144 Invalid Blocks : 3
Heartbeat CPU 2 instructions: 20000002 cycles: 10622999 heartbeat IPC: 1.88265 cumulative IPC: 1.88271 (Simulation time: 0 hr 58 min 13 sec) 
 Total Blocks : 262144 Invalid Blocks : 3
Heartbeat CPU 1 instructions: 20000002 cycles: 10623000 heartbeat IPC: 1.88265 cumulative IPC: 1.88271 (Simulation time: 0 hr 58 min 13 sec) 
 Total Blocks : 262144 Invalid Blocks : 3
Heartbeat CPU 7 instructions: 20000002 cycles: 10623099 heartbeat IPC: 1.88264 cumulative IPC: 1.88269 (Simulation time: 0 hr 58 min 14 sec) 
 Total Blocks : 262144 Invalid Blocks : 3
Heartbeat CPU 3 instructions: 20000002 cycles: 10623110 heartbeat IPC: 1.88264 cumulative IPC: 1.88269 (Simulation time: 0 hr 58 min 14 sec) 
 Total Blocks : 262144 Invalid Blocks : 3
Heartbeat CPU 4 instructions: 20000002 cycles: 10623305 heartbeat IPC: 1.88259 cumulative IPC: 1.88265 (Simulation time: 0 hr 58 min 14 sec) 
 Total Blocks : 262144 Invalid Blocks : 3
Heartbeat CPU 6 instructions: 20000002 cycles: 10623306 heartbeat IPC: 1.88259 cumulative IPC: 1.88265 (Simulation time: 0 hr 58 min 14 sec) 
 Total Blocks : 262144 Invalid Blocks : 3
Heartbeat CPU 5 instructions: 20000002 cycles: 10623308 heartbeat IPC: 1.88259 cumulative IPC: 1.88265 (Simulation time: 0 hr 58 min 14 sec) 
 Total Blocks : 262144 Invalid Blocks : 3
Heartbeat CPU 0 instructions: 30000002 cycles: 15934220 heartbeat IPC: 1.88278 cumulative IPC: 1.88274 (Simulation time: 1 hr 42 min 24 sec) 
 Total Blocks : 262144 Invalid Blocks : 0
Heartbeat CPU 1 instructions: 30000002 cycles: 15934336 heartbeat IPC: 1.88277 cumulative IPC: 1.88273 (Simulation time: 1 hr 42 min 24 sec) 
 Total Blocks : 262144 Invalid Blocks : 0
Heartbeat CPU 2 instructions: 30000002 cycles: 15934354 heartbeat IPC: 1.88276 cumulative IPC: 1.88272 (Simulation time: 1 hr 42 min 24 sec) 
 Total Blocks : 262144 Invalid Blocks : 0
Heartbeat CPU 3 instructions: 30000002 cycles: 15934423 heartbeat IPC: 1.88277 cumulative IPC: 1.88272 (Simulation time: 1 hr 42 min 24 sec) 
 Total Blocks : 262144 Invalid Blocks : 0
Heartbeat CPU 7 instructions: 30000002 cycles: 15934439 heartbeat IPC: 1.88276 cumulative IPC: 1.88271 (Simulation time: 1 hr 42 min 24 sec) 
 Total Blocks : 262144 Invalid Blocks : 0
Heartbeat CPU 5 instructions: 30000002 cycles: 15934704 heartbeat IPC: 1.88274 cumulative IPC: 1.88268 (Simulation time: 1 hr 42 min 24 sec) 
 Total Blocks : 262144 Invalid Blocks : 0
Heartbeat CPU 4 instructions: 30000002 cycles: 15934719 heartbeat IPC: 1.88274 cumulative IPC: 1.88268 (Simulation time: 1 hr 42 min 24 sec) 
 Total Blocks : 262144 Invalid Blocks : 0
Heartbeat CPU 6 instructions: 30000002 cycles: 15934743 heartbeat IPC: 1.88273 cumulative IPC: 1.88268 (Simulation time: 1 hr 42 min 24 sec) 
 Total Blocks : 262144 Invalid Blocks : 0
Heartbeat CPU 0 instructions: 40000003 cycles: 21244944 heartbeat IPC: 1.88298 cumulative IPC: 1.8828 (Simulation time: 2 hr 35 min 55 sec) 
 Total Blocks : 262144 Invalid Blocks : 0
Heartbeat CPU 1 instructions: 40000003 cycles: 21245065 heartbeat IPC: 1.88298 cumulative IPC: 1.88279 (Simulation time: 2 hr 35 min 55 sec) 
 Total Blocks : 262144 Invalid Blocks : 0
Heartbeat CPU 2 instructions: 40000003 cycles: 21245101 heartbeat IPC: 1.88297 cumulative IPC: 1.88279 (Simulation time: 2 hr 35 min 55 sec) 
 Total Blocks : 262144 Invalid Blocks : 0
Heartbeat CPU 3 instructions: 40000003 cycles: 21245152 heartbeat IPC: 1.88298 cumulative IPC: 1.88278 (Simulation time: 2 hr 35 min 55 sec) 
 Total Blocks : 262144 Invalid Blocks : 0
Heartbeat CPU 7 instructions: 40000003 cycles: 21245161 heartbeat IPC: 1.88298 cumulative IPC: 1.88278 (Simulation time: 2 hr 35 min 55 sec) 
 Total Blocks : 262144 Invalid Blocks : 0
Heartbeat CPU 5 instructions: 40000003 cycles: 21245452 heartbeat IPC: 1.88297 cumulative IPC: 1.88276 (Simulation time: 2 hr 35 min 55 sec) 
 Total Blocks : 262144 Invalid Blocks : 0
Heartbeat CPU 4 instructions: 40000003 cycles: 21245458 heartbeat IPC: 1.88298 cumulative IPC: 1.88276 (Simulation time: 2 hr 35 min 55 sec) 
 Total Blocks : 262144 Invalid Blocks : 0
Heartbeat CPU 6 instructions: 40000003 cycles: 21245490 heartbeat IPC: 1.88297 cumulative IPC: 1.88275 (Simulation time: 2 hr 35 min 55 sec) 
 Total Blocks : 262144 Invalid Blocks : 0
Heartbeat CPU 0 instructions: 50000003 cycles: 26556169 heartbeat IPC: 1.8828 cumulative IPC: 1.8828 (Simulation time: 3 hr 38 min 33 sec) 
 Total Blocks : 262144 Invalid Blocks : 0
Heartbeat CPU 1 instructions: 50000003 cycles: 26556287 heartbeat IPC: 1.88281 cumulative IPC: 1.88279 (Simulation time: 3 hr 38 min 33 sec) 
 Total Blocks : 262144 Invalid Blocks : 0
Heartbeat CPU 2 instructions: 50000003 cycles: 26556330 heartbeat IPC: 1.8828 cumulative IPC: 1.88279 (Simulation time: 3 hr 38 min 33 sec) 
 Total Blocks : 262144 Invalid Blocks : 0
Heartbeat CPU 3 instructions: 50000003 cycles: 26556375 heartbeat IPC: 1.88281 cumulative IPC: 1.88279 (Simulation time: 3 hr 38 min 33 sec) 
 Total Blocks : 262144 Invalid Blocks : 0
Heartbeat CPU 7 instructions: 50000003 cycles: 26556388 heartbeat IPC: 1.8828 cumulative IPC: 1.88279 (Simulation time: 3 hr 38 min 33 sec) 
 Total Blocks : 262144 Invalid Blocks : 0
Heartbeat CPU 4 instructions: 50000003 cycles: 26556680 heartbeat IPC: 1.88281 cumulative IPC: 1.88277 (Simulation time: 3 hr 38 min 33 sec) 
 Total Blocks : 262144 Invalid Blocks : 0
Heartbeat CPU 5 instructions: 50000003 cycles: 26556693 heartbeat IPC: 1.8828 cumulative IPC: 1.88276 (Simulation time: 3 hr 38 min 33 sec) 
 Total Blocks : 262144 Invalid Blocks : 0
Heartbeat CPU 6 instructions: 50000003 cycles: 26556732 heartbeat IPC: 1.8828 cumulative IPC: 1.88276 (Simulation time: 3 hr 38 min 33 sec) 
 Total Blocks : 262144 Invalid Blocks : 0
Heartbeat CPU 0 instructions: 60000002 cycles: 31867899 heartbeat IPC: 1.88263 cumulative IPC: 1.88277 (Simulation time: 4 hr 50 min 14 sec) 
 Total Blocks : 262144 Invalid Blocks : 0
Heartbeat CPU 1 instructions: 60000002 cycles: 31868015 heartbeat IPC: 1.88263 cumulative IPC: 1.88277 (Simulation time: 4 hr 50 min 14 sec) 
 Total Blocks : 262144 Invalid Blocks : 0
Heartbeat CPU 2 instructions: 60000002 cycles: 31868068 heartbeat IPC: 1.88262 cumulative IPC: 1.88276 (Simulation time: 4 hr 50 min 14 sec) 
 Total Blocks : 262144 Invalid Blocks : 0
Heartbeat CPU 3 instructions: 60000002 cycles: 31868118 heartbeat IPC: 1.88262 cumulative IPC: 1.88276 (Simulation time: 4 hr 50 min 14 sec) 
 Total Blocks : 262144 Invalid Blocks : 0
Heartbeat CPU 7 instructions: 60000002 cycles: 31868146 heartbeat IPC: 1.88262 cumulative IPC: 1.88276 (Simulation time: 4 hr 50 min 14 sec) 
 Total Blocks : 262144 Invalid Blocks : 0
Heartbeat CPU 4 instructions: 60000002 cycles: 31868422 heartbeat IPC: 1.88262 cumulative IPC: 1.88274 (Simulation time: 4 hr 50 min 14 sec) 
 Total Blocks : 262144 Invalid Blocks : 0
Heartbeat CPU 5 instructions: 60000002 cycles: 31868450 heartbeat IPC: 1.88262 cumulative IPC: 1.88274 (Simulation time: 4 hr 50 min 14 sec) 
 Total Blocks : 262144 Invalid Blocks : 0
Heartbeat CPU 6 instructions: 60000002 cycles: 31868482 heartbeat IPC: 1.88262 cumulative IPC: 1.88274 (Simulation time: 4 hr 50 min 14 sec) 
 Total Blocks : 262144 Invalid Blocks : 0
Heartbeat CPU 0 instructions: 70000001 cycles: 37179043 heartbeat IPC: 1.88283 cumulative IPC: 1.88278 (Simulation time: 6 hr 10 min 48 sec) 
 Total Blocks : 262144 Invalid Blocks : 0
Heartbeat CPU 1 instructions: 70000001 cycles: 37179096 heartbeat IPC: 1.88286 cumulative IPC: 1.88278 (Simulation time: 6 hr 10 min 48 sec) 
 Total Blocks : 262144 Invalid Blocks : 0
Heartbeat CPU 2 instructions: 70000001 cycles: 37179237 heartbeat IPC: 1.88282 cumulative IPC: 1.88277 (Simulation time: 6 hr 10 min 48 sec) 
 Total Blocks : 262144 Invalid Blocks : 0
Heartbeat CPU 3 instructions: 70000001 cycles: 37179243 heartbeat IPC: 1.88284 cumulative IPC: 1.88277 (Simulation time: 6 hr 10 min 48 sec) 
 Total Blocks : 262144 Invalid Blocks : 0
Heartbeat CPU 7 instructions: 70000001 cycles: 37179304 heartbeat IPC: 1.88283 cumulative IPC: 1.88277 (Simulation time: 6 hr 10 min 48 sec) 
 Total Blocks : 262144 Invalid Blocks : 0
Heartbeat CPU 4 instructions: 70000001 cycles: 37179579 heartbeat IPC: 1.88283 cumulative IPC: 1.88275 (Simulation time: 6 hr 10 min 49 sec) 
 Total Blocks : 262144 Invalid Blocks : 0
Heartbeat CPU 5 instructions: 70000001 cycles: 37179614 heartbeat IPC: 1.88283 cumulative IPC: 1.88275 (Simulation time: 6 hr 10 min 49 sec) 
 Total Blocks : 262144 Invalid Blocks : 0
Heartbeat CPU 6 instructions: 70000001 cycles: 37179649 heartbeat IPC: 1.88283 cumulative IPC: 1.88275 (Simulation time: 6 hr 10 min 49 sec) 
 Total Blocks : 262144 Invalid Blocks : 0
Heartbeat CPU 0 instructions: 80000000 cycles: 42489821 heartbeat IPC: 1.88296 cumulative IPC: 1.8828 (Simulation time: 7 hr 40 min 50 sec) 
 Total Blocks : 262144 Invalid Blocks : 0
Heartbeat CPU 1 instructions: 80000000 cycles: 42489849 heartbeat IPC: 1.88297 cumulative IPC: 1.8828 (Simulation time: 7 hr 40 min 50 sec) 
 Total Blocks : 262144 Invalid Blocks : 0
Heartbeat CPU 3 instructions: 80000000 cycles: 42490073 heartbeat IPC: 1.88294 cumulative IPC: 1.88279 (Simulation time: 7 hr 40 min 50 sec) 
 Total Blocks : 262144 Invalid Blocks : 0
Heartbeat CPU 2 instructions: 80000000 cycles: 42490074 heartbeat IPC: 1.88294 cumulative IPC: 1.88279 (Simulation time: 7 hr 40 min 50 sec) 
 Total Blocks : 262144 Invalid Blocks : 0
Heartbeat CPU 7 instructions: 80000000 cycles: 42490119 heartbeat IPC: 1.88295 cumulative IPC: 1.88279 (Simulation time: 7 hr 40 min 50 sec) 
 Total Blocks : 262144 Invalid Blocks : 0
Heartbeat CPU 4 instructions: 80000000 cycles: 42490390 heartbeat IPC: 1.88295 cumulative IPC: 1.88278 (Simulation time: 7 hr 40 min 50 sec) 
 Total Blocks : 262144 Invalid Blocks : 0
Heartbeat CPU 5 instructions: 80000000 cycles: 42490432 heartbeat IPC: 1.88295 cumulative IPC: 1.88278 (Simulation time: 7 hr 40 min 50 sec) 
 Total Blocks : 262144 Invalid Blocks : 0
Heartbeat CPU 6 instructions: 80000000 cycles: 42490465 heartbeat IPC: 1.88295 cumulative IPC: 1.88278 (Simulation time: 7 hr 40 min 50 sec) 
 Total Blocks : 262144 Invalid Blocks : 0
Heartbeat CPU 0 instructions: 90000003 cycles: 47801256 heartbeat IPC: 1.88273 cumulative IPC: 1.8828 (Simulation time: 9 hr 21 min 3 sec) 
 Total Blocks : 262144 Invalid Blocks : 0
Heartbeat CPU 1 instructions: 90000003 cycles: 47801271 heartbeat IPC: 1.88274 cumulative IPC: 1.8828 (Simulation time: 9 hr 21 min 3 sec) 
 Total Blocks : 262144 Invalid Blocks : 0
Heartbeat CPU 3 instructions: 90000003 cycles: 47801525 heartbeat IPC: 1.88272 cumulative IPC: 1.88279 (Simulation time: 9 hr 21 min 3 sec) 
 Total Blocks : 262144 Invalid Blocks : 0
Heartbeat CPU 2 instructions: 90000003 cycles: 47801534 heartbeat IPC: 1.88272 cumulative IPC: 1.88278 (Simulation time: 9 hr 21 min 3 sec) 
 Total Blocks : 262144 Invalid Blocks : 0
Heartbeat CPU 7 instructions: 90000003 cycles: 47801575 heartbeat IPC: 1.88272 cumulative IPC: 1.88278 (Simulation time: 9 hr 21 min 3 sec) 
 Total Blocks : 262144 Invalid Blocks : 0
Heartbeat CPU 4 instructions: 90000003 cycles: 47801847 heartbeat IPC: 1.88272 cumulative IPC: 1.88277 (Simulation time: 9 hr 21 min 3 sec) 
 Total Blocks : 262144 Invalid Blocks : 0
Heartbeat CPU 5 instructions: 90000003 cycles: 47801884 heartbeat IPC: 1.88272 cumulative IPC: 1.88277 (Simulation time: 9 hr 21 min 3 sec) 
 Total Blocks : 262144 Invalid Blocks : 0
Heartbeat CPU 6 instructions: 90000003 cycles: 47801925 heartbeat IPC: 1.88272 cumulative IPC: 1.88277 (Simulation time: 9 hr 21 min 3 sec) 
 Total Blocks : 262144 Invalid Blocks : 0
Heartbeat CPU 0 instructions: 100000001 cycles: 53112833 heartbeat IPC: 1.88268 cumulative IPC: 1.88278 (Simulation time: 11 hr 5 min 19 sec) 
 Total Blocks : 262144 Invalid Blocks : 0
Heartbeat CPU 1 instructions: 100000001 cycles: 53112853 heartbeat IPC: 1.88268 cumulative IPC: 1.88278 (Simulation time: 11 hr 5 min 19 sec) 
 Total Blocks : 262144 Invalid Blocks : 0
Heartbeat CPU 2 instructions: 100000001 cycles: 53113162 heartbeat IPC: 1.88266 cumulative IPC: 1.88277 (Simulation time: 11 hr 5 min 19 sec) 
 Total Blocks : 262144 Invalid Blocks : 0
Heartbeat CPU 3 instructions: 100000001 cycles: 53113167 heartbeat IPC: 1.88266 cumulative IPC: 1.88277 (Simulation time: 11 hr 5 min 19 sec) 
 Total Blocks : 262144 Invalid Blocks : 0
Heartbeat CPU 7 instructions: 100000001 cycles: 53113198 heartbeat IPC: 1.88266 cumulative IPC: 1.88277 (Simulation time: 11 hr 5 min 19 sec) 
 Total Blocks : 262144 Invalid Blocks : 0
Heartbeat CPU 4 instructions: 100000001 cycles: 53113469 heartbeat IPC: 1.88266 cumulative IPC: 1.88276 (Simulation time: 11 hr 5 min 19 sec) 
 Total Blocks : 262144 Invalid Blocks : 0
Heartbeat CPU 5 instructions: 100000001 cycles: 53113504 heartbeat IPC: 1.88266 cumulative IPC: 1.88276 (Simulation time: 11 hr 5 min 19 sec) 
 Total Blocks : 262144 Invalid Blocks : 0
Heartbeat CPU 6 instructions: 100000001 cycles: 53113548 heartbeat IPC: 1.88266 cumulative IPC: 1.88276 (Simulation time: 11 hr 5 min 19 sec) 
 Total Blocks : 262144 Invalid Blocks : 0
Heartbeat CPU 1 instructions: 110000000 cycles: 58423432 heartbeat IPC: 1.88303 cumulative IPC: 1.88281 (Simulation time: 12 hr 49 min 2 sec) 
 Total Blocks : 262144 Invalid Blocks : 0
Heartbeat CPU 0 instructions: 110000000 cycles: 58423433 heartbeat IPC: 1.88303 cumulative IPC: 1.88281 (Simulation time: 12 hr 49 min 2 sec) 
 Total Blocks : 262144 Invalid Blocks : 0
Heartbeat CPU 2 instructions: 110000000 cycles: 58423794 heartbeat IPC: 1.88301 cumulative IPC: 1.88279 (Simulation time: 12 hr 49 min 2 sec) 
 Total Blocks : 262144 Invalid Blocks : 0
Heartbeat CPU 3 instructions: 110000000 cycles: 58423805 heartbeat IPC: 1.88301 cumulative IPC: 1.88279 (Simulation time: 12 hr 49 min 2 sec) 
 Total Blocks : 262144 Invalid Blocks : 0
Heartbeat CPU 7 instructions: 110000000 cycles: 58423825 heartbeat IPC: 1.88302 cumulative IPC: 1.88279 (Simulation time: 12 hr 49 min 2 sec) 
 Total Blocks : 262144 Invalid Blocks : 0
Heartbeat CPU 4 instructions: 110000000 cycles: 58424083 heartbeat IPC: 1.88302 cumulative IPC: 1.88279 (Simulation time: 12 hr 49 min 2 sec) 
 Total Blocks : 262144 Invalid Blocks : 0
Heartbeat CPU 5 instructions: 110000000 cycles: 58424120 heartbeat IPC: 1.88302 cumulative IPC: 1.88278 (Simulation time: 12 hr 49 min 2 sec) 
 Total Blocks : 262144 Invalid Blocks : 0
Heartbeat CPU 6 instructions: 110000000 cycles: 58424192 heartbeat IPC: 1.88301 cumulative IPC: 1.88278 (Simulation time: 12 hr 49 min 2 sec) 
 Total Blocks : 262144 Invalid Blocks : 0
Heartbeat CPU 0 instructions: 120000001 cycles: 63734410 heartbeat IPC: 1.88289 cumulative IPC: 1.88281 (Simulation time: 14 hr 37 min 1 sec) 
 Total Blocks : 262144 Invalid Blocks : 0
Heartbeat CPU 1 instructions: 120000001 cycles: 63734426 heartbeat IPC: 1.88289 cumulative IPC: 1.88281 (Simulation time: 14 hr 37 min 1 sec) 
 Total Blocks : 262144 Invalid Blocks : 0
Heartbeat CPU 2 instructions: 120000001 cycles: 63734785 heartbeat IPC: 1.88289 cumulative IPC: 1.8828 (Simulation time: 14 hr 37 min 1 sec) 
 Total Blocks : 262144 Invalid Blocks : 0
Heartbeat CPU 3 instructions: 120000001 cycles: 63734803 heartbeat IPC: 1.88289 cumulative IPC: 1.8828 (Simulation time: 14 hr 37 min 1 sec) 
 Total Blocks : 262144 Invalid Blocks : 0
Heartbeat CPU 7 instructions: 120000001 cycles: 63734833 heartbeat IPC: 1.88288 cumulative IPC: 1.8828 (Simulation time: 14 hr 37 min 1 sec) 
 Total Blocks : 262144 Invalid Blocks : 0
Heartbeat CPU 4 instructions: 120000001 cycles: 63735067 heartbeat IPC: 1.88289 cumulative IPC: 1.88279 (Simulation time: 14 hr 37 min 2 sec) 
 Total Blocks : 262144 Invalid Blocks : 0
Heartbeat CPU 5 instructions: 120000001 cycles: 63735110 heartbeat IPC: 1.88289 cumulative IPC: 1.88279 (Simulation time: 14 hr 37 min 2 sec) 
 Total Blocks : 262144 Invalid Blocks : 0
Heartbeat CPU 6 instructions: 120000001 cycles: 63735195 heartbeat IPC: 1.88288 cumulative IPC: 1.88279 (Simulation time: 14 hr 37 min 2 sec) 
 Total Blocks : 262144 Invalid Blocks : 0
Heartbeat CPU 1 instructions: 130000003 cycles: 69046114 heartbeat IPC: 1.88264 cumulative IPC: 1.8828 (Simulation time: 16 hr 32 min 20 sec) 
 Total Blocks : 262144 Invalid Blocks : 0
Heartbeat CPU 0 instructions: 130000003 cycles: 69046125 heartbeat IPC: 1.88263 cumulative IPC: 1.8828 (Simulation time: 16 hr 32 min 20 sec) 
 Total Blocks : 262144 Invalid Blocks : 0
Heartbeat CPU 2 instructions: 130000003 cycles: 69046513 heartbeat IPC: 1.88263 cumulative IPC: 1.88279 (Simulation time: 16 hr 32 min 20 sec) 
 Total Blocks : 262144 Invalid Blocks : 0
Heartbeat CPU 3 instructions: 130000003 cycles: 69046527 heartbeat IPC: 1.88263 cumulative IPC: 1.88279 (Simulation time: 16 hr 32 min 20 sec) 
 Total Blocks : 262144 Invalid Blocks : 0
Heartbeat CPU 7 instructions: 130000003 cycles: 69046561 heartbeat IPC: 1.88263 cumulative IPC: 1.88279 (Simulation time: 16 hr 32 min 20 sec) 
 Total Blocks : 262144 Invalid Blocks : 0
Heartbeat CPU 4 instructions: 130000003 cycles: 69046806 heartbeat IPC: 1.88262 cumulative IPC: 1.88278 (Simulation time: 16 hr 32 min 20 sec) 
 Total Blocks : 262144 Invalid Blocks : 0
Heartbeat CPU 5 instructions: 130000003 cycles: 69046859 heartbeat IPC: 1.88262 cumulative IPC: 1.88278 (Simulation time: 16 hr 32 min 20 sec) 
 Total Blocks : 262144 Invalid Blocks : 0
Heartbeat CPU 6 instructions: 130000003 cycles: 69046921 heartbeat IPC: 1.88263 cumulative IPC: 1.88278 (Simulation time: 16 hr 32 min 20 sec) 
 Total Blocks : 262144 Invalid Blocks : 0
Heartbeat CPU 1 instructions: 140000000 cycles: 74357612 heartbeat IPC: 1.88271 cumulative IPC: 1.88279 (Simulation time: 18 hr 35 min 38 sec) 
 Total Blocks : 262144 Invalid Blocks : 0
Heartbeat CPU 0 instructions: 140000000 cycles: 74357613 heartbeat IPC: 1.88271 cumulative IPC: 1.88279 (Simulation time: 18 hr 35 min 38 sec) 
 Total Blocks : 262144 Invalid Blocks : 0
Heartbeat CPU 2 instructions: 140000000 cycles: 74358003 heartbeat IPC: 1.88271 cumulative IPC: 1.88278 (Simulation time: 18 hr 35 min 39 sec) 
 Total Blocks : 262144 Invalid Blocks : 0
Heartbeat CPU 3 instructions: 140000000 cycles: 74358003 heartbeat IPC: 1.88272 cumulative IPC: 1.88278 (Simulation time: 18 hr 35 min 39 sec) 
 Total Blocks : 262144 Invalid Blocks : 0
Heartbeat CPU 7 instructions: 140000000 cycles: 74358040 heartbeat IPC: 1.88271 cumulative IPC: 1.88278 (Simulation time: 18 hr 35 min 39 sec) 
 Total Blocks : 262144 Invalid Blocks : 0
Heartbeat CPU 4 instructions: 140000000 cycles: 74358287 heartbeat IPC: 1.88271 cumulative IPC: 1.88278 (Simulation time: 18 hr 35 min 39 sec) 
 Total Blocks : 262144 Invalid Blocks : 0
Heartbeat CPU 5 instructions: 140000000 cycles: 74358372 heartbeat IPC: 1.8827 cumulative IPC: 1.88277 (Simulation time: 18 hr 35 min 39 sec) 
 Total Blocks : 262144 Invalid Blocks : 0
Heartbeat CPU 6 instructions: 140000000 cycles: 74358410 heartbeat IPC: 1.88271 cumulative IPC: 1.88277 (Simulation time: 18 hr 35 min 39 sec) 
 Total Blocks : 262144 Invalid Blocks : 0
Heartbeat CPU 0 instructions: 150000002 cycles: 79668407 heartbeat IPC: 1.88296 cumulative IPC: 1.8828 (Simulation time: 20 hr 46 min 20 sec) 
 Total Blocks : 262144 Invalid Blocks : 0
Heartbeat CPU 1 instructions: 150000002 cycles: 79668414 heartbeat IPC: 1.88296 cumulative IPC: 1.8828 (Simulation time: 20 hr 46 min 20 sec) 
 Total Blocks : 262144 Invalid Blocks : 0
Heartbeat CPU 3 instructions: 150000002 cycles: 79668811 heartbeat IPC: 1.88295 cumulative IPC: 1.88279 (Simulation time: 20 hr 46 min 20 sec) 
 Total Blocks : 262144 Invalid Blocks : 0
Heartbeat CPU 2 instructions: 150000002 cycles: 79668818 heartbeat IPC: 1.88295 cumulative IPC: 1.88279 (Simulation time: 20 hr 46 min 20 sec) 
 Total Blocks : 262144 Invalid Blocks : 0
Heartbeat CPU 7 instructions: 150000002 cycles: 79668823 heartbeat IPC: 1.88296 cumulative IPC: 1.88279 (Simulation time: 20 hr 46 min 20 sec) 
 Total Blocks : 262144 Invalid Blocks : 0
Heartbeat CPU 4 instructions: 150000002 cycles: 79669040 heartbeat IPC: 1.88297 cumulative IPC: 1.88279 (Simulation time: 20 hr 46 min 20 sec) 
 Total Blocks : 262144 Invalid Blocks : 0
Heartbeat CPU 5 instructions: 150000002 cycles: 79669158 heartbeat IPC: 1.88296 cumulative IPC: 1.88279 (Simulation time: 20 hr 46 min 20 sec) 
 Total Blocks : 262144 Invalid Blocks : 0
Heartbeat CPU 6 instructions: 150000002 cycles: 79669179 heartbeat IPC: 1.88297 cumulative IPC: 1.88279 (Simulation time: 20 hr 46 min 20 sec) 
 Total Blocks : 262144 Invalid Blocks : 0
Heartbeat CPU 0 instructions: 160000003 cycles: 84979754 heartbeat IPC: 1.88276 cumulative IPC: 1.8828 (Simulation time: 23 hr 5 min 41 sec) 
 Total Blocks : 262144 Invalid Blocks : 0
Heartbeat CPU 1 instructions: 160000003 cycles: 84979764 heartbeat IPC: 1.88276 cumulative IPC: 1.8828 (Simulation time: 23 hr 5 min 41 sec) 
 Total Blocks : 262144 Invalid Blocks : 0
Heartbeat CPU 2 instructions: 160000003 cycles: 84980189 heartbeat IPC: 1.88275 cumulative IPC: 1.88279 (Simulation time: 23 hr 5 min 41 sec) 
 Total Blocks : 262144 Invalid Blocks : 0
Heartbeat CPU 7 instructions: 160000003 cycles: 84980218 heartbeat IPC: 1.88274 cumulative IPC: 1.88279 (Simulation time: 23 hr 5 min 41 sec) 
 Total Blocks : 262144 Invalid Blocks : 0
Heartbeat CPU 3 instructions: 160000003 cycles: 84980227 heartbeat IPC: 1.88274 cumulative IPC: 1.88279 (Simulation time: 23 hr 5 min 41 sec) 
 Total Blocks : 262144 Invalid Blocks : 0
Heartbeat CPU 4 instructions: 160000003 cycles: 84980364 heartbeat IPC: 1.88277 cumulative IPC: 1.88279 (Simulation time: 23 hr 5 min 41 sec) 
 Total Blocks : 262144 Invalid Blocks : 0
Heartbeat CPU 5 instructions: 160000003 cycles: 84980506 heartbeat IPC: 1.88276 cumulative IPC: 1.88278 (Simulation time: 23 hr 5 min 41 sec) 
 Total Blocks : 262144 Invalid Blocks : 0
Heartbeat CPU 6 instructions: 160000003 cycles: 84980530 heartbeat IPC: 1.88276 cumulative IPC: 1.88278 (Simulation time: 23 hr 5 min 41 sec) 
 Total Blocks : 262144 Invalid Blocks : 0
Heartbeat CPU 0 instructions: 170000000 cycles: 90291397 heartbeat IPC: 1.88266 cumulative IPC: 1.88279 (Simulation time: 25 hr 3 min 28 sec) 
 Total Blocks : 262144 Invalid Blocks : 0
Heartbeat CPU 1 instructions: 170000000 cycles: 90291409 heartbeat IPC: 1.88266 cumulative IPC: 1.88279 (Simulation time: 25 hr 3 min 28 sec) 
 Total Blocks : 262144 Invalid Blocks : 0
Heartbeat CPU 2 instructions: 170000000 cycles: 90291840 heartbeat IPC: 1.88265 cumulative IPC: 1.88278 (Simulation time: 25 hr 3 min 28 sec) 
 Total Blocks : 262144 Invalid Blocks : 0
Heartbeat CPU 7 instructions: 170000000 cycles: 90291873 heartbeat IPC: 1.88265 cumulative IPC: 1.88278 (Simulation time: 25 hr 3 min 28 sec) 
 Total Blocks : 262144 Invalid Blocks : 0
Heartbeat CPU 3 instructions: 170000000 cycles: 90291879 heartbeat IPC: 1.88265 cumulative IPC: 1.88278 (Simulation time: 25 hr 3 min 28 sec) 
 Total Blocks : 262144 Invalid Blocks : 0
Heartbeat CPU 4 instructions: 170000000 cycles: 90292010 heartbeat IPC: 1.88266 cumulative IPC: 1.88278 (Simulation time: 25 hr 3 min 28 sec) 
 Total Blocks : 262144 Invalid Blocks : 0
Heartbeat CPU 6 instructions: 170000000 cycles: 90292175 heartbeat IPC: 1.88266 cumulative IPC: 1.88278 (Simulation time: 25 hr 3 min 28 sec) 
 Total Blocks : 262144 Invalid Blocks : 0
Heartbeat CPU 5 instructions: 170000000 cycles: 90292185 heartbeat IPC: 1.88264 cumulative IPC: 1.88278 (Simulation time: 25 hr 3 min 28 sec) 
 Total Blocks : 262144 Invalid Blocks : 0
Heartbeat CPU 0 instructions: 180000002 cycles: 95602215 heartbeat IPC: 1.88295 cumulative IPC: 1.8828 (Simulation time: 27 hr 8 min 17 sec) 
 Total Blocks : 262144 Invalid Blocks : 0
Heartbeat CPU 1 instructions: 180000002 cycles: 95602236 heartbeat IPC: 1.88295 cumulative IPC: 1.8828 (Simulation time: 27 hr 8 min 17 sec) 
 Total Blocks : 262144 Invalid Blocks : 0
Heartbeat CPU 2 instructions: 180000002 cycles: 95602656 heartbeat IPC: 1.88295 cumulative IPC: 1.88279 (Simulation time: 27 hr 8 min 17 sec) 
 Total Blocks : 262144 Invalid Blocks : 0
Heartbeat CPU 3 instructions: 180000002 cycles: 95602733 heartbeat IPC: 1.88294 cumulative IPC: 1.88279 (Simulation time: 27 hr 8 min 17 sec) 
 Total Blocks : 262144 Invalid Blocks : 0
Heartbeat CPU 7 instructions: 180000002 cycles: 95602740 heartbeat IPC: 1.88293 cumulative IPC: 1.88279 (Simulation time: 27 hr 8 min 17 sec) 
 Total Blocks : 262144 Invalid Blocks : 0
Heartbeat CPU 4 instructions: 180000002 cycles: 95602827 heartbeat IPC: 1.88295 cumulative IPC: 1.88279 (Simulation time: 27 hr 8 min 17 sec) 
 Total Blocks : 262144 Invalid Blocks : 0
Heartbeat CPU 5 instructions: 180000002 cycles: 95603021 heartbeat IPC: 1.88294 cumulative IPC: 1.88279 (Simulation time: 27 hr 8 min 17 sec) 
 Total Blocks : 262144 Invalid Blocks : 0
Heartbeat CPU 6 instructions: 180000002 cycles: 95603028 heartbeat IPC: 1.88294 cumulative IPC: 1.88279 (Simulation time: 27 hr 8 min 17 sec) 
 Total Blocks : 262144 Invalid Blocks : 0
Heartbeat CPU 0 instructions: 190000002 cycles: 100912873 heartbeat IPC: 1.88301 cumulative IPC: 1.88281 (Simulation time: 29 hr 20 min 41 sec) 
 Total Blocks : 262144 Invalid Blocks : 0
Heartbeat CPU 1 instructions: 190000002 cycles: 100912901 heartbeat IPC: 1.883 cumulative IPC: 1.88281 (Simulation time: 29 hr 20 min 42 sec) 
 Total Blocks : 262144 Invalid Blocks : 0
Heartbeat CPU 2 instructions: 190000002 cycles: 100913330 heartbeat IPC: 1.883 cumulative IPC: 1.8828 (Simulation time: 29 hr 20 min 42 sec) 
 Total Blocks : 262144 Invalid Blocks : 0
Heartbeat CPU 7 instructions: 190000002 cycles: 100913440 heartbeat IPC: 1.88299 cumulative IPC: 1.8828 (Simulation time: 29 hr 20 min 42 sec) 
 Total Blocks : 262144 Invalid Blocks : 0
Heartbeat CPU 3 instructions: 190000002 cycles: 100913441 heartbeat IPC: 1.88299 cumulative IPC: 1.8828 (Simulation time: 29 hr 20 min 42 sec) 
 Total Blocks : 262144 Invalid Blocks : 0
Heartbeat CPU 4 instructions: 190000002 cycles: 100913494 heartbeat IPC: 1.883 cumulative IPC: 1.8828 (Simulation time: 29 hr 20 min 42 sec) 
 Total Blocks : 262144 Invalid Blocks : 0
Heartbeat CPU 5 instructions: 190000002 cycles: 100913735 heartbeat IPC: 1.88299 cumulative IPC: 1.8828 (Simulation time: 29 hr 20 min 42 sec) 
 Total Blocks : 262144 Invalid Blocks : 0
Heartbeat CPU 6 instructions: 190000002 cycles: 100913752 heartbeat IPC: 1.88298 cumulative IPC: 1.8828 (Simulation time: 29 hr 20 min 42 sec) 
 Total Blocks : 262144 Invalid Blocks : 0
Heartbeat CPU 0 instructions: 200000003 cycles: 106224568 heartbeat IPC: 1.88264 cumulative IPC: 1.8828 (Simulation time: 31 hr 39 min 53 sec) 
 Total Blocks : 262144 Invalid Blocks : 0
Heartbeat CPU 1 instructions: 200000003 cycles: 106224607 heartbeat IPC: 1.88263 cumulative IPC: 1.8828 (Simulation time: 31 hr 39 min 53 sec) 
 Total Blocks : 262144 Invalid Blocks : 0
Heartbeat CPU 2 instructions: 200000003 cycles: 106225038 heartbeat IPC: 1.88263 cumulative IPC: 1.8828 (Simulation time: 31 hr 39 min 53 sec) 
 Total Blocks : 262144 Invalid Blocks : 0
Heartbeat CPU 7 instructions: 200000003 cycles: 106225163 heartbeat IPC: 1.88263 cumulative IPC: 1.88279 (Simulation time: 31 hr 39 min 53 sec) 
 Total Blocks : 262144 Invalid Blocks : 0
Heartbeat CPU 3 instructions: 200000003 cycles: 106225174 heartbeat IPC: 1.88262 cumulative IPC: 1.88279 (Simulation time: 31 hr 39 min 53 sec) 
 Total Blocks : 262144 Invalid Blocks : 0
Heartbeat CPU 4 instructions: 200000003 cycles: 106225219 heartbeat IPC: 1.88263 cumulative IPC: 1.88279 (Simulation time: 31 hr 39 min 53 sec) 
 Total Blocks : 262144 Invalid Blocks : 0
Heartbeat CPU 5 instructions: 200000003 cycles: 106225446 heartbeat IPC: 1.88263 cumulative IPC: 1.88279 (Simulation time: 31 hr 39 min 53 sec) 
 Total Blocks : 262144 Invalid Blocks : 0
Heartbeat CPU 6 instructions: 200000003 cycles: 106225486 heartbeat IPC: 1.88262 cumulative IPC: 1.88279 (Simulation time: 31 hr 39 min 53 sec) 
 Total Blocks : 262144 Invalid Blocks : 0

Warmup complete CPU 0 instructions: 200001744 cycles: 106225486 (Simulation time: 31 hr 39 min 53 sec) 
Warmup complete CPU 1 instructions: 200001607 cycles: 106225486 (Simulation time: 31 hr 39 min 53 sec) 
Warmup complete CPU 2 instructions: 200000814 cycles: 106225486 (Simulation time: 31 hr 39 min 53 sec) 
Warmup complete CPU 3 instructions: 200000569 cycles: 106225486 (Simulation time: 31 hr 39 min 53 sec) 
Warmup complete CPU 4 instructions: 200000482 cycles: 106225486 (Simulation time: 31 hr 39 min 53 sec) 
Warmup complete CPU 5 instructions: 200000078 cycles: 106225486 (Simulation time: 31 hr 39 min 53 sec) 
Warmup complete CPU 6 instructions: 200000003 cycles: 106225486 (Simulation time: 31 hr 39 min 53 sec) 
Warmup complete CPU 7 instructions: 200000569 cycles: 106225485 (Simulation time: 31 hr 39 min 53 sec) 

Heartbeat CPU 6 instructions: 210000002 cycles: 116803309 heartbeat IPC: 0.945374 cumulative IPC: 0.945374 (Simulation time: 34 hr 7 min 50 sec) 
 Total Blocks : 262144 Invalid Blocks : 0
Heartbeat CPU 4 instructions: 210000002 cycles: 116831787 heartbeat IPC: 0.942812 cumulative IPC: 0.942791 (Simulation time: 34 hr 8 min 14 sec) 
 Total Blocks : 262144 Invalid Blocks : 0
Heartbeat CPU 2 instructions: 210000002 cycles: 116875319 heartbeat IPC: 0.938942 cumulative IPC: 0.938906 (Simulation time: 34 hr 8 min 52 sec) 
 Total Blocks : 262144 Invalid Blocks : 0
Heartbeat CPU 3 instructions: 210000002 cycles: 116882903 heartbeat IPC: 0.938286 cumulative IPC: 0.93826 (Simulation time: 34 hr 8 min 59 sec) 
 Total Blocks : 262144 Invalid Blocks : 0
Heartbeat CPU 7 instructions: 210000002 cycles: 116910758 heartbeat IPC: 0.935839 cumulative IPC: 0.935814 (Simulation time: 34 hr 9 min 22 sec) 
 Total Blocks : 262144 Invalid Blocks : 0
Heartbeat CPU 0 instructions: 210000002 cycles: 116915665 heartbeat IPC: 0.935358 cumulative IPC: 0.935275 (Simulation time: 34 hr 9 min 25 sec) 
 Total Blocks : 262144 Invalid Blocks : 0
Heartbeat CPU 5 instructions: 210000002 cycles: 116920176 heartbeat IPC: 0.93504 cumulative IPC: 0.935036 (Simulation time: 34 hr 9 min 34 sec) 
 Total Blocks : 262144 Invalid Blocks : 0
Heartbeat CPU 1 instructions: 210000002 cycles: 116979017 heartbeat IPC: 0.929851 cumulative IPC: 0.929778 (Simulation time: 34 hr 10 min 23 sec) 
 Total Blocks : 262144 Invalid Blocks : 0
Heartbeat CPU 6 instructions: 220000000 cycles: 127471970 heartbeat IPC: 0.937325 cumulative IPC: 0.941332 (Simulation time: 37 hr 37 min 18 sec) 
 Total Blocks : 262144 Invalid Blocks : 0
Heartbeat CPU 2 instructions: 220000000 cycles: 127477515 heartbeat IPC: 0.943201 cumulative IPC: 0.941048 (Simulation time: 37 hr 37 min 30 sec) 
 Total Blocks : 262144 Invalid Blocks : 0
Heartbeat CPU 5 instructions: 220000000 cycles: 127490158 heartbeat IPC: 0.946075 cumulative IPC: 0.940523 (Simulation time: 37 hr 37 min 43 sec) 
 Total Blocks : 262144 Invalid Blocks : 0
Heartbeat CPU 4 instructions: 220000000 cycles: 127507558 heartbeat IPC: 0.9367 cumulative IPC: 0.939735 (Simulation time: 37 hr 38 min 3 sec) 
 Total Blocks : 262144 Invalid Blocks : 0
Heartbeat CPU 3 instructions: 220000000 cycles: 127512445 heartbeat IPC: 0.940774 cumulative IPC: 0.939516 (Simulation time: 37 hr 38 min 8 sec) 
 Total Blocks : 262144 Invalid Blocks : 0
Heartbeat CPU 7 instructions: 220000000 cycles: 127563051 heartbeat IPC: 0.938765 cumulative IPC: 0.937287 (Simulation time: 37 hr 39 min 9 sec) 
 Total Blocks : 262144 Invalid Blocks : 0
Heartbeat CPU 1 instructions: 220000000 cycles: 127571465 heartbeat IPC: 0.944069 cumulative IPC: 0.936869 (Simulation time: 37 hr 39 min 14 sec) 
 Total Blocks : 262144 Invalid Blocks : 0
Heartbeat CPU 0 instructions: 220000000 cycles: 127622053 heartbeat IPC: 0.934022 cumulative IPC: 0.934648 (Simulation time: 37 hr 40 min 19 sec) 
 Total Blocks : 262144 Invalid Blocks : 0
Heartbeat CPU 5 instructions: 230000002 cycles: 138122664 heartbeat IPC: 0.940512 cumulative IPC: 0.94052 (Simulation time: 41 hr 12 min 11 sec) 
 Total Blocks : 262144 Invalid Blocks : 0
Heartbeat CPU 2 instructions: 230000002 cycles: 138127138 heartbeat IPC: 0.939001 cumulative IPC: 0.940365 (Simulation time: 41 hr 12 min 12 sec) 
 Total Blocks : 262144 Invalid Blocks : 0
Heartbeat CPU 6 instructions: 230000002 cycles: 138166759 heartbeat IPC: 0.935035 cumulative IPC: 0.939224 (Simulation time: 41 hr 12 min 59 sec) 
 Total Blocks : 262144 Invalid Blocks : 0
Heartbeat CPU 7 instructions: 230000002 cycles: 138187781 heartbeat IPC: 0.941201 cumulative IPC: 0.938588 (Simulation time: 41 hr 13 min 22 sec) 
 Total Blocks : 262144 Invalid Blocks : 0
Heartbeat CPU 4 instructions: 230000002 cycles: 138195959 heartbeat IPC: 0.935594 cumulative IPC: 0.938351 (Simulation time: 41 hr 13 min 38 sec) 
 Total Blocks : 262144 Invalid Blocks : 0
Heartbeat CPU 3 instructions: 230000002 cycles: 138231452 heartbeat IPC: 0.932922 cumulative IPC: 0.937308 (Simulation time: 41 hr 14 min 21 sec) 
 Total Blocks : 262144 Invalid Blocks : 0
Heartbeat CPU 1 instructions: 230000002 cycles: 138251748 heartbeat IPC: 0.936305 cumulative IPC: 0.936681 (Simulation time: 41 hr 14 min 47 sec) 
 Total Blocks : 262144 Invalid Blocks : 0
Heartbeat CPU 0 instructions: 230000002 cycles: 138302317 heartbeat IPC: 0.936307 cumulative IPC: 0.9352 (Simulation time: 41 hr 15 min 47 sec) 
 Total Blocks : 262144 Invalid Blocks : 0
Heartbeat CPU 7 instructions: 240000002 cycles: 148750156 heartbeat IPC: 0.946757 cumulative IPC: 0.940617 (Simulation time: 44 hr 50 min 33 sec) 
 Total Blocks : 262144 Invalid Blocks : 0
Heartbeat CPU 6 instructions: 240000002 cycles: 148784644 heartbeat IPC: 0.941807 cumulative IPC: 0.939868 (Simulation time: 44 hr 51 min 13 sec) 
 Total Blocks : 262144 Invalid Blocks : 0
Heartbeat CPU 1 instructions: 240000002 cycles: 148819422 heartbeat IPC: 0.946282 cumulative IPC: 0.939063 (Simulation time: 44 hr 51 min 57 sec) 
 Total Blocks : 262144 Invalid Blocks : 0
Heartbeat CPU 2 instructions: 240000002 cycles: 148830352 heartbeat IPC: 0.934299 cumulative IPC: 0.938841 (Simulation time: 44 hr 52 min 12 sec) 
 Total Blocks : 262144 Invalid Blocks : 0
Heartbeat CPU 4 instructions: 240000002 cycles: 148866708 heartbeat IPC: 0.937141 cumulative IPC: 0.938048 (Simulation time: 44 hr 52 min 53 sec) 
 Total Blocks : 262144 Invalid Blocks : 0
Heartbeat CPU 5 instructions: 240000002 cycles: 148903139 heartbeat IPC: 0.927603 cumulative IPC: 0.937257 (Simulation time: 44 hr 53 min 45 sec) 
 Total Blocks : 262144 Invalid Blocks : 0
Heartbeat CPU 3 instructions: 240000002 cycles: 148903366 heartbeat IPC: 0.937039 cumulative IPC: 0.93724 (Simulation time: 44 hr 53 min 45 sec) 
 Total Blocks : 262144 Invalid Blocks : 0
Heartbeat CPU 0 instructions: 240000002 cycles: 149060183 heartbeat IPC: 0.929552 cumulative IPC: 0.933782 (Simulation time: 44 hr 56 min 42 sec) 
 Total Blocks : 262144 Invalid Blocks : 0
Heartbeat CPU 2 instructions: 250000003 cycles: 159353680 heartbeat IPC: 0.95027 cumulative IPC: 0.941105 (Simulation time: 48 hr 40 min 22 sec) 
 Total Blocks : 262144 Invalid Blocks : 0
Heartbeat CPU 6 instructions: 250000003 cycles: 159387355 heartbeat IPC: 0.943155 cumulative IPC: 0.940524 (Simulation time: 48 hr 41 min 9 sec) 
 Total Blocks : 262144 Invalid Blocks : 0
Heartbeat CPU 7 instructions: 250000003 cycles: 159388275 heartbeat IPC: 0.940016 cumulative IPC: 0.940497 (Simulation time: 48 hr 41 min 11 sec) 
 Total Blocks : 262144 Invalid Blocks : 0
Heartbeat CPU 1 instructions: 250000003 cycles: 159474487 heartbeat IPC: 0.938521 cumulative IPC: 0.938955 (Simulation time: 48 hr 43 min 3 sec) 
 Total Blocks : 262144 Invalid Blocks : 0
Heartbeat CPU 3 instructions: 250000003 cycles: 159514455 heartbeat IPC: 0.94241 cumulative IPC: 0.93827 (Simulation time: 48 hr 43 min 56 sec) 
 Total Blocks : 262144 Invalid Blocks : 0
Heartbeat CPU 5 instructions: 250000003 cycles: 159561962 heartbeat IPC: 0.93819 cumulative IPC: 0.937443 (Simulation time: 48 hr 44 min 53 sec) 
 Total Blocks : 262144 Invalid Blocks : 0
Heartbeat CPU 4 instructions: 250000003 cycles: 159568566 heartbeat IPC: 0.934417 cumulative IPC: 0.93732 (Simulation time: 48 hr 45 min 5 sec) 
 Total Blocks : 262144 Invalid Blocks : 0
Heartbeat CPU 0 instructions: 250000003 cycles: 159705407 heartbeat IPC: 0.939389 cumulative IPC: 0.934898 (Simulation time: 48 hr 47 min 55 sec) 
 Total Blocks : 262144 Invalid Blocks : 0
Heartbeat CPU 7 instructions: 260000002 cycles: 170030510 heartbeat IPC: 0.939652 cumulative IPC: 0.940356 (Simulation time: 52 hr 37 min 34 sec) 
 Total Blocks : 262144 Invalid Blocks : 0
Heartbeat CPU 2 instructions: 260000002 cycles: 170039312 heartbeat IPC: 0.935836 cumulative IPC: 0.940222 (Simulation time: 52 hr 37 min 47 sec) 
 Total Blocks : 262144 Invalid Blocks : 0
Heartbeat CPU 6 instructions: 260000002 cycles: 170061687 heartbeat IPC: 0.936827 cumulative IPC: 0.939906 (Simulation time: 52 hr 38 min 16 sec) 
 Total Blocks : 262144 Invalid Blocks : 0
Heartbeat CPU 1 instructions: 260000002 cycles: 170073060 heartbeat IPC: 0.943523 cumulative IPC: 0.939713 (Simulation time: 52 hr 38 min 26 sec) 
 Total Blocks : 262144 Invalid Blocks : 0
Heartbeat CPU 4 instructions: 260000002 cycles: 170106783 heartbeat IPC: 0.948927 cumulative IPC: 0.939235 (Simulation time: 52 hr 39 min 9 sec) 
 Total Blocks : 262144 Invalid Blocks : 0
Heartbeat CPU 3 instructions: 260000002 cycles: 170196707 heartbeat IPC: 0.936132 cumulative IPC: 0.937913 (Simulation time: 52 hr 41 min 19 sec) 
 Total Blocks : 262144 Invalid Blocks : 0
Heartbeat CPU 5 instructions: 260000002 cycles: 170281858 heartbeat IPC: 0.932845 cumulative IPC: 0.936674 (Simulation time: 52 hr 43 min 15 sec) 
 Total Blocks : 262144 Invalid Blocks : 0
Heartbeat CPU 0 instructions: 260000002 cycles: 170328206 heartbeat IPC: 0.941371 cumulative IPC: 0.935971 (Simulation time: 52 hr 44 min 16 sec) 
 Total Blocks : 262144 Invalid Blocks : 0
Heartbeat CPU 4 instructions: 270000001 cycles: 180736599 heartbeat IPC: 0.94075 cumulative IPC: 0.939451 (Simulation time: 56 hr 36 min 8 sec) 
 Total Blocks : 262144 Invalid Blocks : 0
Heartbeat CPU 2 instructions: 270000001 cycles: 180757960 heartbeat IPC: 0.932953 cumulative IPC: 0.939177 (Simulation time: 56 hr 36 min 41 sec) 
 Total Blocks : 262144 Invalid Blocks : 0
Heartbeat CPU 1 instructions: 270000001 cycles: 180768864 heartbeat IPC: 0.934946 cumulative IPC: 0.939029 (Simulation time: 56 hr 36 min 55 sec) 
 Total Blocks : 262144 Invalid Blocks : 0
Heartbeat CPU 6 instructions: 270000001 cycles: 180832006 heartbeat IPC: 0.928478 cumulative IPC: 0.938256 (Simulation time: 56 hr 38 min 23 sec) 
 Total Blocks : 262144 Invalid Blocks : 0
Heartbeat CPU 7 instructions: 270000001 cycles: 180868082 heartbeat IPC: 0.922716 cumulative IPC: 0.937795 (Simulation time: 56 hr 39 min 0 sec) 
 Total Blocks : 262144 Invalid Blocks : 0
Heartbeat CPU 3 instructions: 270000001 cycles: 180955600 heartbeat IPC: 0.929464 cumulative IPC: 0.936696 (Simulation time: 56 hr 40 min 48 sec) 
 Total Blocks : 262144 Invalid Blocks : 0
Heartbeat CPU 5 instructions: 270000001 cycles: 181015090 heartbeat IPC: 0.931686 cumulative IPC: 0.935958 (Simulation time: 56 hr 41 min 59 sec) 
 Total Blocks : 262144 Invalid Blocks : 0
Heartbeat CPU 0 instructions: 270000001 cycles: 181019413 heartbeat IPC: 0.935348 cumulative IPC: 0.935882 (Simulation time: 56 hr 41 min 59 sec) 
 Total Blocks : 262144 Invalid Blocks : 0
Heartbeat CPU 2 instructions: 280000003 cycles: 191335107 heartbeat IPC: 0.945435 cumulative IPC: 0.939955 (Simulation time: 60 hr 29 min 24 sec) 
 Total Blocks : 262144 Invalid Blocks : 0
Heartbeat CPU 4 instructions: 280000003 cycles: 191366197 heartbeat IPC: 0.94077 cumulative IPC: 0.939615 (Simulation time: 60 hr 30 min 6 sec) 
 Total Blocks : 262144 Invalid Blocks : 0
Heartbeat CPU 1 instructions: 280000003 cycles: 191426720 heartbeat IPC: 0.938275 cumulative IPC: 0.938935 (Simulation time: 60 hr 31 min 35 sec) 
 Total Blocks : 262144 Invalid Blocks : 0
Heartbeat CPU 6 instructions: 280000003 cycles: 191440140 heartbeat IPC: 0.942673 cumulative IPC: 0.938806 (Simulation time: 60 hr 32 min 0 sec) 
 Total Blocks : 262144 Invalid Blocks : 0
Heartbeat CPU 7 instructions: 280000003 cycles: 191473768 heartbeat IPC: 0.942891 cumulative IPC: 0.938429 (Simulation time: 60 hr 32 min 51 sec) 
 Total Blocks : 262144 Invalid Blocks : 0
Heartbeat CPU 3 instructions: 280000003 cycles: 191525480 heartbeat IPC: 0.946085 cumulative IPC: 0.93786 (Simulation time: 60 hr 34 min 5 sec) 
 Total Blocks : 262144 Invalid Blocks : 0
Heartbeat CPU 5 instructions: 280000003 cycles: 191671516 heartbeat IPC: 0.938401 cumulative IPC: 0.936263 (Simulation time: 60 hr 37 min 28 sec) 
 Total Blocks : 262144 Invalid Blocks : 0
Heartbeat CPU 0 instructions: 280000003 cycles: 191707976 heartbeat IPC: 0.93558 cumulative IPC: 0.935844 (Simulation time: 60 hr 38 min 10 sec) 
 Total Blocks : 262144 Invalid Blocks : 0
Heartbeat CPU 4 instructions: 290000002 cycles: 201997738 heartbeat IPC: 0.940597 cumulative IPC: 0.939724 (Simulation time: 64 hr 25 min 15 sec) 
 Total Blocks : 262144 Invalid Blocks : 0
Heartbeat CPU 2 instructions: 290000002 cycles: 202055100 heartbeat IPC: 0.932836 cumulative IPC: 0.939158 (Simulation time: 64 hr 26 min 27 sec) 
 Total Blocks : 262144 Invalid Blocks : 0
Heartbeat CPU 1 instructions: 290000002 cycles: 202057712 heartbeat IPC: 0.940646 cumulative IPC: 0.939125 (Simulation time: 64 hr 26 min 31 sec) 
 Total Blocks : 262144 Invalid Blocks : 0
Heartbeat CPU 6 instructions: 290000002 cycles: 202088390 heartbeat IPC: 0.939121 cumulative IPC: 0.938841 (Simulation time: 64 hr 27 min 7 sec) 
 Total Blocks : 262144 Invalid Blocks : 0
Heartbeat CPU 3 instructions: 290000002 cycles: 202176879 heartbeat IPC: 0.938844 cumulative IPC: 0.937969 (Simulation time: 64 hr 28 min 44 sec) 
 Total Blocks : 262144 Invalid Blocks : 0
Heartbeat CPU 7 instructions: 290000002 cycles: 202209250 heartbeat IPC: 0.93149 cumulative IPC: 0.937653 (Simulation time: 64 hr 29 min 29 sec) 
 Total Blocks : 262144 Invalid Blocks : 0
Heartbeat CPU 5 instructions: 290000002 cycles: 202281231 heartbeat IPC: 0.942532 cumulative IPC: 0.936955 (Simulation time: 64 hr 30 min 54 sec) 
 Total Blocks : 262144 Invalid Blocks : 0
Heartbeat CPU 0 instructions: 290000002 cycles: 202330013 heartbeat IPC: 0.941439 cumulative IPC: 0.936462 (Simulation time: 64 hr 31 min 50 sec) 
 Total Blocks : 262144 Invalid Blocks : 0
Heartbeat CPU 4 instructions: 300000002 cycles: 212570563 heartbeat IPC: 0.945821 cumulative IPC: 0.940331 (Simulation time: 68 hr 34 min 20 sec) 
 Total Blocks : 262144 Invalid Blocks : 0
Heartbeat CPU 6 instructions: 300000002 cycles: 212659171 heartbeat IPC: 0.946004 cumulative IPC: 0.939552 (Simulation time: 68 hr 36 min 40 sec) 
 Total Blocks : 262144 Invalid Blocks : 0
Heartbeat CPU 2 instructions: 300000002 cycles: 212745824 heartbeat IPC: 0.93539 cumulative IPC: 0.93878 (Simulation time: 68 hr 38 min 53 sec) 
 Total Blocks : 262144 Invalid Blocks : 0
Heartbeat CPU 7 instructions: 300000002 cycles: 212767779 heartbeat IPC: 0.947102 cumulative IPC: 0.938589 (Simulation time: 68 hr 39 min 26 sec) 
 Total Blocks : 262144 Invalid Blocks : 0
Heartbeat CPU 3 instructions: 300000002 cycles: 212896254 heartbeat IPC: 0.93289 cumulative IPC: 0.937459 (Simulation time: 68 hr 42 min 48 sec) 
 Total Blocks : 262144 Invalid Blocks : 0
Heartbeat CPU 1 instructions: 300000002 cycles: 212897730 heartbeat IPC: 0.922508 cumulative IPC: 0.937436 (Simulation time: 68 hr 42 min 49 sec) 
 Total Blocks : 262144 Invalid Blocks : 0
Heartbeat CPU 5 instructions: 300000002 cycles: 212925573 heartbeat IPC: 0.939466 cumulative IPC: 0.937206 (Simulation time: 68 hr 43 min 33 sec) 
 Total Blocks : 262144 Invalid Blocks : 0
Heartbeat CPU 0 instructions: 300000002 cycles: 212957037 heartbeat IPC: 0.940997 cumulative IPC: 0.936914 (Simulation time: 68 hr 44 min 25 sec) 
 Total Blocks : 262144 Invalid Blocks : 0
Heartbeat CPU 6 instructions: 310000001 cycles: 223297030 heartbeat IPC: 0.940039 cumulative IPC: 0.939596 (Simulation time: 73 hr 10 min 53 sec) 
 Total Blocks : 262144 Invalid Blocks : 0
Heartbeat CPU 4 instructions: 310000001 cycles: 223306444 heartbeat IPC: 0.931456 cumulative IPC: 0.939517 (Simulation time: 73 hr 11 min 0 sec) 
 Total Blocks : 262144 Invalid Blocks : 0
Heartbeat CPU 2 instructions: 310000001 cycles: 223400463 heartbeat IPC: 0.938558 cumulative IPC: 0.93876 (Simulation time: 73 hr 13 min 35 sec) 
 Total Blocks : 262144 Invalid Blocks : 0
Heartbeat CPU 7 instructions: 310000001 cycles: 223426670 heartbeat IPC: 0.938184 cumulative IPC: 0.938552 (Simulation time: 73 hr 14 min 16 sec) 
 Total Blocks : 262144 Invalid Blocks : 0
Heartbeat CPU 3 instructions: 310000001 cycles: 223513224 heartbeat IPC: 0.941888 cumulative IPC: 0.93786 (Simulation time: 73 hr 16 min 28 sec) 
 Total Blocks : 262144 Invalid Blocks : 0
Heartbeat CPU 5 instructions: 310000001 cycles: 223565344 heartbeat IPC: 0.93987 cumulative IPC: 0.937447 (Simulation time: 73 hr 17 min 57 sec) 
 Total Blocks : 262144 Invalid Blocks : 0
Heartbeat CPU 1 instructions: 310000001 cycles: 223610901 heartbeat IPC: 0.93343 cumulative IPC: 0.93707 (Simulation time: 73 hr 18 min 58 sec) 
 Total Blocks : 262144 Invalid Blocks : 0
Heartbeat CPU 0 instructions: 310000001 cycles: 223665442 heartbeat IPC: 0.933846 cumulative IPC: 0.936634 (Simulation time: 73 hr 20 min 30 sec) 
 Total Blocks : 262144 Invalid Blocks : 0
Heartbeat CPU 2 instructions: 320000001 cycles: 234031885 heartbeat IPC: 0.940608 cumulative IPC: 0.938914 (Simulation time: 77 hr 54 min 42 sec) 
 Total Blocks : 262144 Invalid Blocks : 0
Heartbeat CPU 6 instructions: 320000001 cycles: 234071992 heartbeat IPC: 0.928078 cumulative IPC: 0.938626 (Simulation time: 77 hr 55 min 43 sec) 
 Total Blocks : 262144 Invalid Blocks : 0
Heartbeat CPU 4 instructions: 320000001 cycles: 234131898 heartbeat IPC: 0.923749 cumulative IPC: 0.938182 (Simulation time: 77 hr 57 min 29 sec) 
 Total Blocks : 262144 Invalid Blocks : 0
Heartbeat CPU 7 instructions: 320000001 cycles: 234155755 heartbeat IPC: 0.932046 cumulative IPC: 0.938007 (Simulation time: 77 hr 58 min 4 sec) 
 Total Blocks : 262144 Invalid Blocks : 0
Heartbeat CPU 3 instructions: 320000001 cycles: 234175475 heartbeat IPC: 0.937888 cumulative IPC: 0.937862 (Simulation time: 77 hr 58 min 37 sec) 
 Total Blocks : 262144 Invalid Blocks : 0
Heartbeat CPU 5 instructions: 320000001 cycles: 234234705 heartbeat IPC: 0.937263 cumulative IPC: 0.937432 (Simulation time: 78 hr 0 min 27 sec) 
 Total Blocks : 262144 Invalid Blocks : 0
Heartbeat CPU 1 instructions: 320000001 cycles: 234249795 heartbeat IPC: 0.939947 cumulative IPC: 0.937309 (Simulation time: 78 hr 0 min 46 sec) 
 Total Blocks : 262144 Invalid Blocks : 0
Heartbeat CPU 0 instructions: 320000001 cycles: 234329121 heartbeat IPC: 0.937763 cumulative IPC: 0.936728 (Simulation time: 78 hr 2 min 55 sec) 
 Total Blocks : 262144 Invalid Blocks : 0
Heartbeat CPU 2 instructions: 330000000 cycles: 244621285 heartbeat IPC: 0.94434 cumulative IPC: 0.939329 (Simulation time: 82 hr 45 min 36 sec) 
 Total Blocks : 262144 Invalid Blocks : 0
Heartbeat CPU 7 instructions: 330000000 cycles: 244722596 heartbeat IPC: 0.946357 cumulative IPC: 0.938644 (Simulation time: 82 hr 48 min 32 sec) 
 Total Blocks : 262144 Invalid Blocks : 0
Heartbeat CPU 6 instructions: 330000000 cycles: 244738645 heartbeat IPC: 0.937501 cumulative IPC: 0.938539 (Simulation time: 82 hr 49 min 1 sec) 
 Total Blocks : 262144 Invalid Blocks : 0
Heartbeat CPU 1 instructions: 330000000 cycles: 244796241 heartbeat IPC: 0.948187 cumulative IPC: 0.938137 (Simulation time: 82 hr 50 min 40 sec) 
 Total Blocks : 262144 Invalid Blocks : 0
Heartbeat CPU 4 instructions: 330000000 cycles: 244811217 heartbeat IPC: 0.936389 cumulative IPC: 0.938044 (Simulation time: 82 hr 50 min 57 sec) 
 Total Blocks : 262144 Invalid Blocks : 0
Heartbeat CPU 5 instructions: 330000000 cycles: 244869208 heartbeat IPC: 0.940335 cumulative IPC: 0.937655 (Simulation time: 82 hr 52 min 37 sec) 
 Total Blocks : 262144 Invalid Blocks : 0
Heartbeat CPU 3 instructions: 330000000 cycles: 244904222 heartbeat IPC: 0.932075 cumulative IPC: 0.937414 (Simulation time: 82 hr 53 min 37 sec) 
 Total Blocks : 262144 Invalid Blocks : 0
Heartbeat CPU 0 instructions: 330000000 cycles: 244941185 heartbeat IPC: 0.942324 cumulative IPC: 0.937156 (Simulation time: 82 hr 54 min 33 sec) 
 Total Blocks : 262144 Invalid Blocks : 0
Heartbeat CPU 2 instructions: 340000000 cycles: 255277470 heartbeat IPC: 0.938422 cumulative IPC: 0.939264 (Simulation time: 87 hr 46 min 12 sec) 
 Total Blocks : 262144 Invalid Blocks : 0
Heartbeat CPU 7 instructions: 340000000 cycles: 255388412 heartbeat IPC: 0.937575 cumulative IPC: 0.938567 (Simulation time: 87 hr 49 min 19 sec) 
 Total Blocks : 262144 Invalid Blocks : 0
Heartbeat CPU 6 instructions: 340000000 cycles: 255463078 heartbeat IPC: 0.93245 cumulative IPC: 0.938101 (Simulation time: 87 hr 51 min 20 sec) 
 Total Blocks : 262144 Invalid Blocks : 0
Heartbeat CPU 1 instructions: 340000000 cycles: 255500629 heartbeat IPC: 0.934196 cumulative IPC: 0.937855 (Simulation time: 87 hr 52 min 31 sec) 
 Total Blocks : 262144 Invalid Blocks : 0
Heartbeat CPU 4 instructions: 340000000 cycles: 255509345 heartbeat IPC: 0.934743 cumulative IPC: 0.937807 (Simulation time: 87 hr 52 min 33 sec) 
 Total Blocks : 262144 Invalid Blocks : 0
Heartbeat CPU 5 instructions: 340000000 cycles: 255532299 heartbeat IPC: 0.937814 cumulative IPC: 0.937666 (Simulation time: 87 hr 53 min 18 sec) 
 Total Blocks : 262144 Invalid Blocks : 0
Heartbeat CPU 3 instructions: 340000000 cycles: 255553943 heartbeat IPC: 0.938992 cumulative IPC: 0.937527 (Simulation time: 87 hr 54 min 0 sec) 
 Total Blocks : 262144 Invalid Blocks : 0
Heartbeat CPU 0 instructions: 340000000 cycles: 255622896 heartbeat IPC: 0.93618 cumulative IPC: 0.937086 (Simulation time: 87 hr 55 min 51 sec) 
 Total Blocks : 262144 Invalid Blocks : 0
Heartbeat CPU 2 instructions: 350000000 cycles: 265881088 heartbeat IPC: 0.943074 cumulative IPC: 0.939517 (Simulation time: 92 hr 21 min 19 sec) 
 Total Blocks : 262144 Invalid Blocks : 0
Heartbeat CPU 7 instructions: 350000000 cycles: 266052635 heartbeat IPC: 0.937715 cumulative IPC: 0.93851 (Simulation time: 92 hr 25 min 17 sec) 
 Total Blocks : 262144 Invalid Blocks : 0
Heartbeat CPU 6 instructions: 350000000 cycles: 266201813 heartbeat IPC: 0.931208 cumulative IPC: 0.937639 (Simulation time: 92 hr 28 min 38 sec) 
 Total Blocks : 262144 Invalid Blocks : 0
Heartbeat CPU 1 instructions: 350000000 cycles: 266209890 heartbeat IPC: 0.933771 cumulative IPC: 0.937581 (Simulation time: 92 hr 29 min 0 sec) 
 Total Blocks : 262144 Invalid Blocks : 0
Heartbeat CPU 5 instructions: 350000000 cycles: 266218709 heartbeat IPC: 0.935768 cumulative IPC: 0.937539 (Simulation time: 92 hr 29 min 11 sec) 
 Total Blocks : 262144 Invalid Blocks : 0
Heartbeat CPU 4 instructions: 350000000 cycles: 266233682 heartbeat IPC: 0.932459 cumulative IPC: 0.937449 (Simulation time: 92 hr 29 min 26 sec) 
 Total Blocks : 262144 Invalid Blocks : 0
Heartbeat CPU 3 instructions: 350000000 cycles: 266237154 heartbeat IPC: 0.936048 cumulative IPC: 0.937428 (Simulation time: 92 hr 29 min 31 sec) 
 Total Blocks : 262144 Invalid Blocks : 0
Heartbeat CPU 0 instructions: 350000000 cycles: 266340895 heartbeat IPC: 0.93301 cumulative IPC: 0.936813 (Simulation time: 92 hr 32 min 0 sec) 
 Total Blocks : 262144 Invalid Blocks : 0
Heartbeat CPU 2 instructions: 360000000 cycles: 276417692 heartbeat IPC: 0.949072 cumulative IPC: 0.940109 (Simulation time: 96 hr 34 min 49 sec) 
 Total Blocks : 262144 Invalid Blocks : 0
Heartbeat CPU 7 instructions: 360000000 cycles: 276706934 heartbeat IPC: 0.938588 cumulative IPC: 0.938515 (Simulation time: 96 hr 42 min 0 sec) 
 Total Blocks : 262144 Invalid Blocks : 0
Heartbeat CPU 1 instructions: 360000000 cycles: 276794693 heartbeat IPC: 0.944751 cumulative IPC: 0.938026 (Simulation time: 96 hr 44 min 4 sec) 
 Total Blocks : 262144 Invalid Blocks : 0
Heartbeat CPU 4 instructions: 360000000 cycles: 276799631 heartbeat IPC: 0.946437 cumulative IPC: 0.938006 (Simulation time: 96 hr 44 min 4 sec) 
 Total Blocks : 262144 Invalid Blocks : 0
Heartbeat CPU 6 instructions: 360000000 cycles: 276838498 heartbeat IPC: 0.940143 cumulative IPC: 0.937795 (Simulation time: 96 hr 45 min 11 sec) 
 Total Blocks : 262144 Invalid Blocks : 0
Heartbeat CPU 3 instructions: 360000000 cycles: 276859738 heartbeat IPC: 0.941391 cumulative IPC: 0.937675 (Simulation time: 96 hr 45 min 34 sec) 
 Total Blocks : 262144 Invalid Blocks : 0
Heartbeat CPU 5 instructions: 360000000 cycles: 276884577 heartbeat IPC: 0.93757 cumulative IPC: 0.937541 (Simulation time: 96 hr 46 min 16 sec) 
 Total Blocks : 262144 Invalid Blocks : 0
Heartbeat CPU 0 instructions: 360000000 cycles: 276903932 heartbeat IPC: 0.946697 cumulative IPC: 0.937425 (Simulation time: 96 hr 46 min 39 sec) 
 Total Blocks : 262144 Invalid Blocks : 0
Heartbeat CPU 2 instructions: 370000000 cycles: 287011535 heartbeat IPC: 0.943945 cumulative IPC: 0.940334 (Simulation time: 100 hr 57 min 56 sec) 
 Total Blocks : 262144 Invalid Blocks : 0
Heartbeat CPU 1 instructions: 370000000 cycles: 287329126 heartbeat IPC: 0.949268 cumulative IPC: 0.93868 (Simulation time: 101 hr 6 min 12 sec) 
 Total Blocks : 262144 Invalid Blocks : 0
Heartbeat CPU 4 instructions: 370000000 cycles: 287363273 heartbeat IPC: 0.946643 cumulative IPC: 0.938509 (Simulation time: 101 hr 7 min 0 sec) 
 Total Blocks : 262144 Invalid Blocks : 0
Heartbeat CPU 7 instructions: 370000000 cycles: 287378987 heartbeat IPC: 0.937027 cumulative IPC: 0.938428 (Simulation time: 101 hr 7 min 26 sec) 
 Total Blocks : 262144 Invalid Blocks : 0
Heartbeat CPU 6 instructions: 370000000 cycles: 287426966 heartbeat IPC: 0.944424 cumulative IPC: 0.938182 (Simulation time: 101 hr 8 min 39 sec) 
 Total Blocks : 262144 Invalid Blocks : 0
Heartbeat CPU 5 instructions: 370000000 cycles: 287457855 heartbeat IPC: 0.94578 cumulative IPC: 0.938022 (Simulation time: 101 hr 9 min 22 sec) 
 Total Blocks : 262144 Invalid Blocks : 0
Heartbeat CPU 3 instructions: 370000000 cycles: 287504944 heartbeat IPC: 0.93939 cumulative IPC: 0.937775 (Simulation time: 101 hr 10 min 46 sec) 
 Total Blocks : 262144 Invalid Blocks : 0
Heartbeat CPU 0 instructions: 370000000 cycles: 287586989 heartbeat IPC: 0.936062 cumulative IPC: 0.937345 (Simulation time: 101 hr 12 min 30 sec) 
 Total Blocks : 262144 Invalid Blocks : 0
Heartbeat CPU 2 instructions: 380000002 cycles: 297650596 heartbeat IPC: 0.939933 cumulative IPC: 0.940311 (Simulation time: 105 hr 29 min 49 sec) 
 Total Blocks : 262144 Invalid Blocks : 0
Heartbeat CPU 6 instructions: 380000002 cycles: 297941599 heartbeat IPC: 0.951056 cumulative IPC: 0.938888 (Simulation time: 105 hr 37 min 18 sec) 
 Total Blocks : 262144 Invalid Blocks : 0
Heartbeat CPU 4 instructions: 380000002 cycles: 298030664 heartbeat IPC: 0.937437 cumulative IPC: 0.93845 (Simulation time: 105 hr 39 min 33 sec) 
 Total Blocks : 262144 Invalid Blocks : 0
Heartbeat CPU 1 instructions: 380000002 cycles: 298035362 heartbeat IPC: 0.934035 cumulative IPC: 0.938421 (Simulation time: 105 hr 39 min 39 sec) 
 Total Blocks : 262144 Invalid Blocks : 0
Heartbeat CPU 7 instructions: 380000002 cycles: 298052473 heartbeat IPC: 0.936901 cumulative IPC: 0.938343 (Simulation time: 105 hr 40 min 1 sec) 
 Total Blocks : 262144 Invalid Blocks : 0
Heartbeat CPU 3 instructions: 380000002 cycles: 298085563 heartbeat IPC: 0.945124 cumulative IPC: 0.938181 (Simulation time: 105 hr 40 min 56 sec) 
 Total Blocks : 262144 Invalid Blocks : 0
Heartbeat CPU 5 instructions: 380000002 cycles: 298127997 heartbeat IPC: 0.937195 cumulative IPC: 0.937976 (Simulation time: 105 hr 42 min 0 sec) 
 Total Blocks : 262144 Invalid Blocks : 0
Heartbeat CPU 0 instructions: 380000002 cycles: 298290163 heartbeat IPC: 0.934302 cumulative IPC: 0.937175 (Simulation time: 105 hr 46 min 12 sec) 
 Total Blocks : 262144 Invalid Blocks : 0
Heartbeat CPU 2 instructions: 390000001 cycles: 308404614 heartbeat IPC: 0.929885 cumulative IPC: 0.939757 (Simulation time: 110 hr 10 min 25 sec) 
 Total Blocks : 262144 Invalid Blocks : 0
Heartbeat CPU 6 instructions: 390000001 cycles: 308555245 heartbeat IPC: 0.942183 cumulative IPC: 0.939061 (Simulation time: 110 hr 14 min 26 sec) 
 Total Blocks : 262144 Invalid Blocks : 0
Heartbeat CPU 4 instructions: 390000001 cycles: 308631129 heartbeat IPC: 0.943355 cumulative IPC: 0.938707 (Simulation time: 110 hr 16 min 12 sec) 
 Total Blocks : 262144 Invalid Blocks : 0
Heartbeat CPU 5 instructions: 390000001 cycles: 308721750 heartbeat IPC: 0.943952 cumulative IPC: 0.938289 (Simulation time: 110 hr 18 min 43 sec) 
 Total Blocks : 262144 Invalid Blocks : 0
Heartbeat CPU 1 instructions: 390000001 cycles: 308739304 heartbeat IPC: 0.934235 cumulative IPC: 0.9382 (Simulation time: 110 hr 19 min 15 sec) 
 Total Blocks : 262144 Invalid Blocks : 0
Heartbeat CPU 7 instructions: 390000001 cycles: 308751213 heartbeat IPC: 0.934689 cumulative IPC: 0.93815 (Simulation time: 110 hr 19 min 28 sec) 
 Total Blocks : 262144 Invalid Blocks : 0
Heartbeat CPU 3 instructions: 390000001 cycles: 308814874 heartbeat IPC: 0.932026 cumulative IPC: 0.937855 (Simulation time: 110 hr 21 min 8 sec) 
 Total Blocks : 262144 Invalid Blocks : 0
Heartbeat CPU 0 instructions: 390000001 cycles: 309023407 heartbeat IPC: 0.931685 cumulative IPC: 0.936885 (Simulation time: 110 hr 26 min 44 sec) 
 Total Blocks : 262144 Invalid Blocks : 0
Heartbeat CPU 2 instructions: 400000001 cycles: 318999474 heartbeat IPC: 0.943854 cumulative IPC: 0.939961 (Simulation time: 114 hr 55 min 38 sec) 
 Total Blocks : 262144 Invalid Blocks : 0
Finished CPU 2 instructions: 200000002 cycles: 212774735 cumulative IPC: 0.939961 (Simulation time: 114 hr 55 min 40 sec) 
Heartbeat CPU 6 instructions: 400000001 cycles: 319183816 heartbeat IPC: 0.94086 cumulative IPC: 0.939151 (Simulation time: 115 hr 0 min 41 sec) 
 Total Blocks : 262144 Invalid Blocks : 0
Finished CPU 6 instructions: 200000001 cycles: 212958332 cumulative IPC: 0.939151 (Simulation time: 115 hr 0 min 41 sec) 
Heartbeat CPU 4 instructions: 400000001 cycles: 319281836 heartbeat IPC: 0.938905 cumulative IPC: 0.938717 (Simulation time: 115 hr 3 min 26 sec) 
 Total Blocks : 262144 Invalid Blocks : 0
Finished CPU 4 instructions: 200000001 cycles: 213056694 cumulative IPC: 0.938717 (Simulation time: 115 hr 3 min 26 sec) 
Heartbeat CPU 7 instructions: 400000001 cycles: 319305580 heartbeat IPC: 0.947475 cumulative IPC: 0.938612 (Simulation time: 115 hr 3 min 59 sec) 
 Total Blocks : 262144 Invalid Blocks : 0
Finished CPU 7 instructions: 200000000 cycles: 213080493 cumulative IPC: 0.938612 (Simulation time: 115 hr 3 min 59 sec) 
Heartbeat CPU 5 instructions: 400000001 cycles: 319366438 heartbeat IPC: 0.939436 cumulative IPC: 0.938346 (Simulation time: 115 hr 5 min 39 sec) 
 Total Blocks : 262144 Invalid Blocks : 0
Finished CPU 5 instructions: 200000003 cycles: 213141328 cumulative IPC: 0.938345 (Simulation time: 115 hr 5 min 40 sec) 
Heartbeat CPU 1 instructions: 400000001 cycles: 319433972 heartbeat IPC: 0.935045 cumulative IPC: 0.938041 (Simulation time: 115 hr 7 min 26 sec) 
 Total Blocks : 262144 Invalid Blocks : 0
Finished CPU 1 instructions: 200000001 cycles: 213210249 cumulative IPC: 0.938041 (Simulation time: 115 hr 7 min 32 sec) 
Heartbeat CPU 3 instructions: 400000001 cycles: 319516987 heartbeat IPC: 0.934395 cumulative IPC: 0.937681 (Simulation time: 115 hr 9 min 56 sec) 
 Total Blocks : 262144 Invalid Blocks : 0
Finished CPU 3 instructions: 200000002 cycles: 213292471 cumulative IPC: 0.93768 (Simulation time: 115 hr 9 min 58 sec) 
Heartbeat CPU 0 instructions: 400000001 cycles: 319579577 heartbeat IPC: 0.947313 cumulative IPC: 0.937401 (Simulation time: 115 hr 11 min 37 sec) 
 Total Blocks : 262144 Invalid Blocks : 0
Finished CPU 0 instructions: 200000000 cycles: 213356547 cumulative IPC: 0.937398 (Simulation time: 115 hr 11 min 37 sec) 

CPU 0 Branch Prediction Accuracy: 81.2318% MPKI: 4.68477 Average ROB Occupancy at Mispredict: 210.888

CPU 1 Branch Prediction Accuracy: 81.2318% MPKI: 4.68478 Average ROB Occupancy at Mispredict: 210.903

CPU 2 Branch Prediction Accuracy: 81.2318% MPKI: 4.68479 Average ROB Occupancy at Mispredict: 210.87

CPU 3 Branch Prediction Accuracy: 81.2318% MPKI: 4.6848 Average ROB Occupancy at Mispredict: 210.889

CPU 4 Branch Prediction Accuracy: 81.2318% MPKI: 4.6848 Average ROB Occupancy at Mispredict: 210.872

CPU 5 Branch Prediction Accuracy: 81.2318% MPKI: 4.68481 Average ROB Occupancy at Mispredict: 210.885

CPU 6 Branch Prediction Accuracy: 81.2318% MPKI: 4.68481 Average ROB Occupancy at Mispredict: 210.887

CPU 7 Branch Prediction Accuracy: 81.2318% MPKI: 4.68479 Average ROB Occupancy at Mispredict: 210.897

ChampSim completed all CPUs

Total Simulation Statistics (not including warmup)

CPU 0 cumulative IPC: 0.937398 instructions: 200000000 cycles: 213356547
ITLB TOTAL     ACCESS: 17959183  HIT: 17959183  MISS:     0  HIT %:   100  MISS %:     0  AVERAGE MISS PENALTY: 0
ITLB LOAD      ACCESS: 17959183  HIT: 17959183  MISS:     0  HIT %:   100  MISS %:     0  AVERAGE MISS PENALTY: 0
ITLB RFO       ACCESS:     0  HIT:     0  MISS:     0  HIT %:     0  MISS %:     0  AVERAGE MISS PENALTY: 0
ITLB PREFETCH  ACCESS:     0  HIT:     0  MISS:     0  HIT %:     0  MISS %:     0  AVERAGE MISS PENALTY: 0
ITLB WRITEBACK ACCESS:     0  HIT:     0  MISS:     0  HIT %:     0  MISS %:     0  AVERAGE MISS PENALTY: 0

DTLB TOTAL     ACCESS: 64547269  HIT: 64267876  MISS: 279393  HIT %: 99.5671  MISS %: 0.43285  AVERAGE MISS PENALTY: 96.3745
DTLB LOAD      ACCESS: 59573696  HIT: 59339044  MISS: 234652  HIT %: 99.6061  MISS %: 0.393885  AVERAGE MISS PENALTY: 112.385
DTLB RFO       ACCESS: 4973573  HIT: 4928832  MISS: 44741  HIT %: 99.1004  MISS %: 0.899575  AVERAGE MISS PENALTY: 12.4041
DTLB PREFETCH  ACCESS:     0  HIT:     0  MISS:     0  HIT %:     0  MISS %:     0  AVERAGE MISS PENALTY: 0
DTLB WRITEBACK ACCESS:     0  HIT:     0  MISS:     0  HIT %:     0  MISS %:     0  AVERAGE MISS PENALTY: 0

STLB TOTAL     ACCESS: 279393  HIT: 220010  MISS: 59383  HIT %: 78.7457  MISS %: 21.2543  AVERAGE MISS PENALTY: 100
STLB LOAD      ACCESS: 234652  HIT: 176792  MISS: 57860  HIT %: 75.3422  MISS %: 24.6578  AVERAGE MISS PENALTY: 100
STLB RFO       ACCESS: 44741  HIT: 43218  MISS:  1523  HIT %: 96.596  MISS %: 3.40404  AVERAGE MISS PENALTY: 100
STLB PREFETCH  ACCESS:     0  HIT:     0  MISS:     0  HIT %:     0  MISS %:     0  AVERAGE MISS PENALTY: 0
STLB WRITEBACK ACCESS:     0  HIT:     0  MISS:     0  HIT %:     0  MISS %:     0  AVERAGE MISS PENALTY: 0

L1D TOTAL     ACCESS: 98865762  HIT: 94867302  MISS: 3998460  HIT %: 95.9557  MISS %: 4.04433  AVERAGE MISS PENALTY: 2.20737e+07
L1D LOAD      ACCESS: 59669867  HIT: 59053575  MISS: 616292  HIT %: 98.9672  MISS %: 1.03284  AVERAGE MISS PENALTY: 1.43211e+08
L1D RFO       ACCESS: 10903778  HIT: 10806329  MISS: 97449  HIT %: 99.1063  MISS %: 0.893718  AVERAGE MISS PENALTY: 571.459
L1D PREFETCH  ACCESS: 28292117  HIT: 25007398  MISS: 3284719  HIT %: 88.39  MISS %: 11.61  AVERAGE MISS PENALTY: 180.364
L1D WRITEBACK ACCESS:     0  HIT:     0  MISS:     0  HIT %:     0  MISS %:     0  AVERAGE MISS PENALTY: 0

L1I TOTAL     ACCESS: 30130236  HIT: 30130236  MISS:     0  HIT %:   100  MISS %:     0  AVERAGE MISS PENALTY: 0
L1I LOAD      ACCESS: 30130236  HIT: 30130236  MISS:     0  HIT %:   100  MISS %:     0  AVERAGE MISS PENALTY: 0
L1I RFO       ACCESS:     0  HIT:     0  MISS:     0  HIT %:     0  MISS %:     0  AVERAGE MISS PENALTY: 0
L1I PREFETCH  ACCESS:     0  HIT:     0  MISS:     0  HIT %:     0  MISS %:     0  AVERAGE MISS PENALTY: 0
L1I WRITEBACK ACCESS:     0  HIT:     0  MISS:     0  HIT %:     0  MISS %:     0  AVERAGE MISS PENALTY: 0

L2C TOTAL     ACCESS: 6984896  HIT: 3184317  MISS: 3800579  HIT %: 45.5886  MISS %: 54.4114  AVERAGE MISS PENALTY: 2.03436e+07
L2C LOAD      ACCESS: 594667  HIT: 125718  MISS: 468949  HIT %: 21.1409  MISS %: 78.8591  AVERAGE MISS PENALTY: 1.64871e+08
L2C RFO       ACCESS: 97449  HIT:     0  MISS: 97449  HIT %:     0  MISS %:   100  AVERAGE MISS PENALTY: 554.552
L2C PREFETCH  ACCESS: 6193851  HIT: 2959670  MISS: 3234181  HIT %: 47.784  MISS %: 52.216  AVERAGE MISS PENALTY: 500.029
L2C WRITEBACK ACCESS: 98929  HIT: 98929  MISS:     0  HIT %:   100  MISS %:     0  AVERAGE MISS PENALTY: 0


LLC0 TOTAL     ACCESS: 487232  HIT:  9647  MISS: 477585  HIT %: 1.97996  MISS %: 98.02  AVERAGE MISS PENALTY: 445.015
LLC0 LOAD      ACCESS: 63722  HIT:     1  MISS: 63721  HIT %: 0.00156932  MISS %: 99.9984  AVERAGE MISS PENALTY: 543.993
LLC0 RFO       ACCESS: 12181  HIT:     0  MISS: 12181  HIT %:     0  MISS %:   100  AVERAGE MISS PENALTY: 457.507
LLC0 PREFETCH  ACCESS: 399165  HIT:     8  MISS: 399157  HIT %: 0.00200418  MISS %: 99.998  AVERAGE MISS PENALTY: 431.649
LLC0 WRITEBACK ACCESS: 12164  HIT:  9638  MISS:  2526  HIT %: 79.2338  MISS %: 20.7662  AVERAGE MISS PENALTY: 0

LLC1 TOTAL     ACCESS: 487228  HIT:  9570  MISS: 477658  HIT %: 1.96417  MISS %: 98.0358  AVERAGE MISS PENALTY: 443.586
LLC1 LOAD      ACCESS: 19768  HIT:     0  MISS: 19768  HIT %:     0  MISS %:   100  AVERAGE MISS PENALTY: 547.414
LLC1 RFO       ACCESS: 12181  HIT:     0  MISS: 12181  HIT %:     0  MISS %:   100  AVERAGE MISS PENALTY: 464.362
LLC1 PREFETCH  ACCESS: 443115  HIT:     5  MISS: 443110  HIT %: 0.00112838  MISS %: 99.9989  AVERAGE MISS PENALTY: 440.985
LLC1 WRITEBACK ACCESS: 12164  HIT:  9565  MISS:  2599  HIT %: 78.6337  MISS %: 21.3663  AVERAGE MISS PENALTY: 0

LLC2 TOTAL     ACCESS: 487227  HIT:  9553  MISS: 477674  HIT %: 1.96069  MISS %: 98.0393  AVERAGE MISS PENALTY: 535.724
LLC2 LOAD      ACCESS:  6336  HIT:     0  MISS:  6336  HIT %:     0  MISS %:   100  AVERAGE MISS PENALTY: 444.744
LLC2 RFO       ACCESS: 12181  HIT:     0  MISS: 12181  HIT %:     0  MISS %:   100  AVERAGE MISS PENALTY: 469.084
LLC2 PREFETCH  ACCESS: 456546  HIT:     4  MISS: 456542  HIT %: 0.000876144  MISS %: 99.9991  AVERAGE MISS PENALTY: 541.833
LLC2 WRITEBACK ACCESS: 12164  HIT:  9549  MISS:  2615  HIT %: 78.5021  MISS %: 21.4979  AVERAGE MISS PENALTY: 0

LLC3 TOTAL     ACCESS: 487245  HIT:  9633  MISS: 477612  HIT %: 1.97703  MISS %: 98.023  AVERAGE MISS PENALTY: 523.685
LLC3 LOAD      ACCESS:  6567  HIT:     0  MISS:  6567  HIT %:     0  MISS %:   100  AVERAGE MISS PENALTY: 423.949
LLC3 RFO       ACCESS: 12181  HIT:     0  MISS: 12181  HIT %:     0  MISS %:   100  AVERAGE MISS PENALTY: 464.56
LLC3 PREFETCH  ACCESS: 456333  HIT:     4  MISS: 456329  HIT %: 0.000876553  MISS %: 99.9991  AVERAGE MISS PENALTY: 529.607
LLC3 WRITEBACK ACCESS: 12164  HIT:  9629  MISS:  2535  HIT %: 79.1598  MISS %: 20.8402  AVERAGE MISS PENALTY: 0

LLC4 TOTAL     ACCESS: 487253  HIT:  9645  MISS: 477608  HIT %: 1.97946  MISS %: 98.0205  AVERAGE MISS PENALTY: 452.033
LLC4 LOAD      ACCESS:  6545  HIT:     0  MISS:  6545  HIT %:     0  MISS %:   100  AVERAGE MISS PENALTY: 584.137
LLC4 RFO       ACCESS: 12181  HIT:     0  MISS: 12181  HIT %:     0  MISS %:   100  AVERAGE MISS PENALTY: 513.702
LLC4 PREFETCH  ACCESS: 456353  HIT:     6  MISS: 456347  HIT %: 0.00131477  MISS %: 99.9987  AVERAGE MISS PENALTY: 451.004
LLC4 WRITEBACK ACCESS: 12174  HIT:  9639  MISS:  2535  HIT %: 79.1769  MISS %: 20.8231  AVERAGE MISS PENALTY: 0

LLC5 TOTAL     ACCESS: 487253  HIT:  9572  MISS: 477681  HIT %: 1.96448  MISS %: 98.0355  AVERAGE MISS PENALTY: 449.913
LLC5 LOAD      ACCESS:  5777  HIT:     0  MISS:  5777  HIT %:     0  MISS %:   100  AVERAGE MISS PENALTY: 573.768
LLC5 RFO       ACCESS: 12181  HIT:     0  MISS: 12181  HIT %:     0  MISS %:   100  AVERAGE MISS PENALTY: 762.124
LLC5 PREFETCH  ACCESS: 457119  HIT:     3  MISS: 457116  HIT %: 0.000656284  MISS %: 99.9993  AVERAGE MISS PENALTY: 442.594
LLC5 WRITEBACK ACCESS: 12176  HIT:  9569  MISS:  2607  HIT %: 78.589  MISS %: 21.411  AVERAGE MISS PENALTY: 0

LLC6 TOTAL     ACCESS: 487240  HIT:  9549  MISS: 477691  HIT %: 1.95981  MISS %: 98.0402  AVERAGE MISS PENALTY: 544.155
LLC6 LOAD      ACCESS:  6206  HIT:     3  MISS:  6203  HIT %: 0.0483403  MISS %: 99.9517  AVERAGE MISS PENALTY: 468.346
LLC6 RFO       ACCESS: 12181  HIT:     0  MISS: 12181  HIT %:     0  MISS %:   100  AVERAGE MISS PENALTY: 500.477
LLC6 PREFETCH  ACCESS: 456686  HIT:     9  MISS: 456677  HIT %: 0.00197072  MISS %: 99.998  AVERAGE MISS PENALTY: 549.483
LLC6 WRITEBACK ACCESS: 12167  HIT:  9537  MISS:  2630  HIT %: 78.3842  MISS %: 21.6158  AVERAGE MISS PENALTY: 0

LLC7 TOTAL     ACCESS: 487242  HIT:  9645  MISS: 477597  HIT %: 1.97951  MISS %: 98.0205  AVERAGE MISS PENALTY: 518.477
LLC7 LOAD      ACCESS:  6022  HIT:     3  MISS:  6019  HIT %: 0.0498173  MISS %: 99.9502  AVERAGE MISS PENALTY: 451.811
LLC7 RFO       ACCESS: 12182  HIT:     0  MISS: 12182  HIT %:     0  MISS %:   100  AVERAGE MISS PENALTY: 484.672
LLC7 PREFETCH  ACCESS: 456870  HIT:     9  MISS: 456861  HIT %: 0.00196993  MISS %: 99.998  AVERAGE MISS PENALTY: 523.134
LLC7 WRITEBACK ACCESS: 12168  HIT:  9633  MISS:  2535  HIT %: 79.1667  MISS %: 20.8333  AVERAGE MISS PENALTY: 0

Total Rob stall cycles : 	170580695
Total Load Rob Stall cycles : 	89562446
Average Rob Stall cycles : 	 6
Average Load Rob Stall cycles : 	 21

CPU 1 cumulative IPC: 0.93807 instructions: 200143322 cycles: 213356547
ITLB TOTAL     ACCESS: 17972067  HIT: 17972067  MISS:     0  HIT %:   100  MISS %:     0  AVERAGE MISS PENALTY: 0
ITLB LOAD      ACCESS: 17972067  HIT: 17972067  MISS:     0  HIT %:   100  MISS %:     0  AVERAGE MISS PENALTY: 0
ITLB RFO       ACCESS:     0  HIT:     0  MISS:     0  HIT %:     0  MISS %:     0  AVERAGE MISS PENALTY: 0
ITLB PREFETCH  ACCESS:     0  HIT:     0  MISS:     0  HIT %:     0  MISS %:     0  AVERAGE MISS PENALTY: 0
ITLB WRITEBACK ACCESS:     0  HIT:     0  MISS:     0  HIT %:     0  MISS %:     0  AVERAGE MISS PENALTY: 0

DTLB TOTAL     ACCESS: 64593974  HIT: 64314513  MISS: 279461  HIT %: 99.5674  MISS %: 0.432643  AVERAGE MISS PENALTY: 96.3887
DTLB LOAD      ACCESS: 59616857  HIT: 59382116  MISS: 234741  HIT %: 99.6063  MISS %: 0.393749  AVERAGE MISS PENALTY: 112.388
DTLB RFO       ACCESS: 4977117  HIT: 4932397  MISS: 44720  HIT %: 99.1015  MISS %: 0.898512  AVERAGE MISS PENALTY: 12.4079
DTLB PREFETCH  ACCESS:     0  HIT:     0  MISS:     0  HIT %:     0  MISS %:     0  AVERAGE MISS PENALTY: 0
DTLB WRITEBACK ACCESS:     0  HIT:     0  MISS:     0  HIT %:     0  MISS %:     0  AVERAGE MISS PENALTY: 0

STLB TOTAL     ACCESS: 279461  HIT: 220039  MISS: 59422  HIT %: 78.7369  MISS %: 21.2631  AVERAGE MISS PENALTY: 100
STLB LOAD      ACCESS: 234741  HIT: 176843  MISS: 57898  HIT %: 75.3354  MISS %: 24.6646  AVERAGE MISS PENALTY: 100
STLB RFO       ACCESS: 44720  HIT: 43196  MISS:  1524  HIT %: 96.5921  MISS %: 3.40787  AVERAGE MISS PENALTY: 100
STLB PREFETCH  ACCESS:     0  HIT:     0  MISS:     0  HIT %:     0  MISS %:     0  AVERAGE MISS PENALTY: 0
STLB WRITEBACK ACCESS:     0  HIT:     0  MISS:     0  HIT %:     0  MISS %:     0  AVERAGE MISS PENALTY: 0

L1D TOTAL     ACCESS: 98941537  HIT: 94940224  MISS: 4001313  HIT %: 95.9559  MISS %: 4.04412  AVERAGE MISS PENALTY: 2.21074e+07
L1D LOAD      ACCESS: 59713556  HIT: 59097181  MISS: 616375  HIT %: 98.9678  MISS %: 1.03222  AVERAGE MISS PENALTY: 1.43514e+08
L1D RFO       ACCESS: 10911820  HIT: 10814302  MISS: 97518  HIT %: 99.1063  MISS %: 0.893691  AVERAGE MISS PENALTY: 570.914
L1D PREFETCH  ACCESS: 28316161  HIT: 25028741  MISS: 3287420  HIT %: 88.3903  MISS %: 11.6097  AVERAGE MISS PENALTY: 180.362
L1D WRITEBACK ACCESS:     0  HIT:     0  MISS:     0  HIT %:     0  MISS %:     0  AVERAGE MISS PENALTY: 0

L1I TOTAL     ACCESS: 30151803  HIT: 30151803  MISS:     0  HIT %:   100  MISS %:     0  AVERAGE MISS PENALTY: 0
L1I LOAD      ACCESS: 30151803  HIT: 30151803  MISS:     0  HIT %:   100  MISS %:     0  AVERAGE MISS PENALTY: 0
L1I RFO       ACCESS:     0  HIT:     0  MISS:     0  HIT %:     0  MISS %:     0  AVERAGE MISS PENALTY: 0
L1I PREFETCH  ACCESS:     0  HIT:     0  MISS:     0  HIT %:     0  MISS %:     0  AVERAGE MISS PENALTY: 0
L1I WRITEBACK ACCESS:     0  HIT:     0  MISS:     0  HIT %:     0  MISS %:     0  AVERAGE MISS PENALTY: 0

L2C TOTAL     ACCESS: 6989097  HIT: 3185784  MISS: 3803313  HIT %: 45.5822  MISS %: 54.4178  AVERAGE MISS PENALTY: 2.04025e+07
L2C LOAD      ACCESS: 594951  HIT: 125790  MISS: 469161  HIT %: 21.1429  MISS %: 78.8571  AVERAGE MISS PENALTY: 1.65392e+08
L2C RFO       ACCESS: 97518  HIT:     0  MISS: 97518  HIT %:     0  MISS %:   100  AVERAGE MISS PENALTY: 554.002
L2C PREFETCH  ACCESS: 6197634  HIT: 2961000  MISS: 3236634  HIT %: 47.7763  MISS %: 52.2237  AVERAGE MISS PENALTY: 500.275
L2C WRITEBACK ACCESS: 98994  HIT: 98994  MISS:     0  HIT %:   100  MISS %:     0  AVERAGE MISS PENALTY: 0


LLC0 TOTAL     ACCESS: 487593  HIT:  9621  MISS: 477972  HIT %: 1.97316  MISS %: 98.0268  AVERAGE MISS PENALTY: 445.438
LLC0 LOAD      ACCESS: 63753  HIT:     2  MISS: 63751  HIT %: 0.00313711  MISS %: 99.9969  AVERAGE MISS PENALTY: 544.564
LLC0 RFO       ACCESS: 12190  HIT:     0  MISS: 12190  HIT %:     0  MISS %:   100  AVERAGE MISS PENALTY: 458.598
LLC0 PREFETCH  ACCESS: 399471  HIT:     7  MISS: 399464  HIT %: 0.00175232  MISS %: 99.9982  AVERAGE MISS PENALTY: 432.079
LLC0 WRITEBACK ACCESS: 12179  HIT:  9612  MISS:  2567  HIT %: 78.9227  MISS %: 21.0773  AVERAGE MISS PENALTY: 0

LLC1 TOTAL     ACCESS: 487584  HIT:  9623  MISS: 477961  HIT %: 1.97361  MISS %: 98.0264  AVERAGE MISS PENALTY: 441.991
LLC1 LOAD      ACCESS: 19898  HIT:     0  MISS: 19898  HIT %:     0  MISS %:   100  AVERAGE MISS PENALTY: 544.883
LLC1 RFO       ACCESS: 12190  HIT:     0  MISS: 12190  HIT %:     0  MISS %:   100  AVERAGE MISS PENALTY: 457.043
LLC1 PREFETCH  ACCESS: 443317  HIT:     6  MISS: 443311  HIT %: 0.00135343  MISS %: 99.9986  AVERAGE MISS PENALTY: 439.513
LLC1 WRITEBACK ACCESS: 12179  HIT:  9617  MISS:  2562  HIT %: 78.9638  MISS %: 21.0362  AVERAGE MISS PENALTY: 0

LLC2 TOTAL     ACCESS: 487584  HIT:  9586  MISS: 477998  HIT %: 1.96602  MISS %: 98.034  AVERAGE MISS PENALTY: 535.484
LLC2 LOAD      ACCESS:  6168  HIT:     0  MISS:  6168  HIT %:     0  MISS %:   100  AVERAGE MISS PENALTY: 454.935
LLC2 RFO       ACCESS: 12190  HIT:     0  MISS: 12190  HIT %:     0  MISS %:   100  AVERAGE MISS PENALTY: 474.604
LLC2 PREFETCH  ACCESS: 457047  HIT:     5  MISS: 457042  HIT %: 0.00109398  MISS %: 99.9989  AVERAGE MISS PENALTY: 541.239
LLC2 WRITEBACK ACCESS: 12179  HIT:  9581  MISS:  2598  HIT %: 78.6682  MISS %: 21.3318  AVERAGE MISS PENALTY: 0

LLC3 TOTAL     ACCESS: 487599  HIT:  9600  MISS: 477999  HIT %: 1.96883  MISS %: 98.0312  AVERAGE MISS PENALTY: 522.194
LLC3 LOAD      ACCESS:  6521  HIT:     0  MISS:  6521  HIT %:     0  MISS %:   100  AVERAGE MISS PENALTY: 431.039
LLC3 RFO       ACCESS: 12190  HIT:     0  MISS: 12190  HIT %:     0  MISS %:   100  AVERAGE MISS PENALTY: 469.451
LLC3 PREFETCH  ACCESS: 456709  HIT:     8  MISS: 456701  HIT %: 0.00175166  MISS %: 99.9982  AVERAGE MISS PENALTY: 527.861
LLC3 WRITEBACK ACCESS: 12179  HIT:  9592  MISS:  2587  HIT %: 78.7585  MISS %: 21.2415  AVERAGE MISS PENALTY: 0

[...]
LLC1 PREFETCH  REQUESTED:     0  ISSUED:     0  USEFUL:     0  USELESS: 3549847
 USEFUL LOAD PREFETCHES:          0 PREFETCH ISSUED TO LOWER LEVEL:    9487275  ACCURACY: 0
 TIMELY PREFETCHES:          0 LATE PREFETCHES: 0 DROPPED PREFETCHES: 0
LLC1 AVERAGE MISS LATENCY: 442.305 cycles
LLC2 TOTAL     ACCESS: 487230  HIT:  9621  MISS: 477609  HIT %: 1.97463  MISS %: 98.0254  AVERAGE MISS PENALTY: 535.802
LLC2 LOAD      ACCESS:  6203  HIT:     0  MISS:  6203  HIT %:     0  MISS %:   100  AVERAGE MISS PENALTY: 450.177
LLC2 RFO       ACCESS: 12181  HIT:     0  MISS: 12181  HIT %:     0  MISS %:   100  AVERAGE MISS PENALTY: 472.158
LLC2 PREFETCH  ACCESS: 456681  HIT:     6  MISS: 456675  HIT %: 0.00131383  MISS %: 99.9987  AVERAGE MISS PENALTY: 541.654
LLC2 WRITEBACK ACCESS: 12165  HIT:  9615  MISS:  2550  HIT %: 79.0382  MISS %: 20.9618  AVERAGE MISS PENALTY: 0
LLC2 PREFETCH  REQUESTED:     0  ISSUED:     0  USEFUL:     0  USELESS: 3657747
 USEFUL LOAD PREFETCHES:          0 PREFETCH ISSUED TO LOWER LEVEL:   15100017  ACCURACY: 0
 TIMELY PREFETCHES:          0 LATE PREFETCHES: 0 DROPPED PREFETCHES: 0
LLC2 AVERAGE MISS LATENCY: 535.802 cycles
LLC3 TOTAL     ACCESS: 487244  HIT:  9602  MISS: 477642  HIT %: 1.97068  MISS %: 98.0293  AVERAGE MISS PENALTY: 522.471
LLC3 LOAD      ACCESS:  6682  HIT:     0  MISS:  6682  HIT %:     0  MISS %:   100  AVERAGE MISS PENALTY: 433.029
LLC3 RFO       ACCESS: 12181  HIT:     0  MISS: 12181  HIT %:     0  MISS %:   100  AVERAGE MISS PENALTY: 465.066
LLC3 PREFETCH  ACCESS: 456216  HIT:     9  MISS: 456207  HIT %: 0.00197275  MISS %: 99.998  AVERAGE MISS PENALTY: 528.26
LLC3 WRITEBACK ACCESS: 12165  HIT:  9593  MISS:  2572  HIT %: 78.8574  MISS %: 21.1426  AVERAGE MISS PENALTY: 0
LLC3 PREFETCH  REQUESTED:     0  ISSUED:     0  USEFUL:     0  USELESS: 3655030
 USEFUL LOAD PREFETCHES:          0 PREFETCH ISSUED TO LOWER LEVEL:   11963002  ACCURACY: 0
 TIMELY PREFETCHES:          0 LATE PREFETCHES: 0 DROPPED PREFETCHES: 0
LLC3 AVERAGE MISS LATENCY: 522.471 cycles
LLC4 TOTAL     ACCESS: 487251  HIT:  9627  MISS: 477624  HIT %: 1.97578  MISS %: 98.0242  AVERAGE MISS PENALTY: 451.164
LLC4 LOAD      ACCESS:  6384  HIT:     0  MISS:  6384  HIT %:     0  MISS %:   100  AVERAGE MISS PENALTY: 580.841
LLC4 RFO       ACCESS: 12181  HIT:     0  MISS: 12181  HIT %:     0  MISS %:   100  AVERAGE MISS PENALTY: 516.236
LLC4 PREFETCH  ACCESS: 456511  HIT:     5  MISS: 456506  HIT %: 0.00109526  MISS %: 99.9989  AVERAGE MISS PENALTY: 450.138
LLC4 WRITEBACK ACCESS: 12175  HIT:  9622  MISS:  2553  HIT %: 79.0308  MISS %: 20.9692  AVERAGE MISS PENALTY: 0
LLC4 PREFETCH  REQUESTED:     0  ISSUED:     0  USEFUL:     0  USELESS: 3656013
 USEFUL LOAD PREFETCHES:          0 PREFETCH ISSUED TO LOWER LEVEL:   18197348  ACCURACY: 0
 TIMELY PREFETCHES:          0 LATE PREFETCHES: 0 DROPPED PREFETCHES: 0
LLC4 AVERAGE MISS LATENCY: 451.164 cycles
LLC5 TOTAL     ACCESS: 487252  HIT:  9552  MISS: 477700  HIT %: 1.96038  MISS %: 98.0396  AVERAGE MISS PENALTY: 449.938
LLC5 LOAD      ACCESS:  5912  HIT:     0  MISS:  5912  HIT %:     0  MISS %:   100  AVERAGE MISS PENALTY: 581.897
LLC5 RFO       ACCESS: 12181  HIT:     0  MISS: 12181  HIT %:     0  MISS %:   100  AVERAGE MISS PENALTY: 764.542
LLC5 PREFETCH  ACCESS: 456983  HIT:     8  MISS: 456975  HIT %: 0.00175061  MISS %: 99.9982  AVERAGE MISS PENALTY: 442.436
LLC5 WRITEBACK ACCESS: 12176  HIT:  9544  MISS:  2632  HIT %: 78.3837  MISS %: 21.6163  AVERAGE MISS PENALTY: 0
LLC5 PREFETCH  REQUESTED:     0  ISSUED:     0  USEFUL:     0  USELESS: 3660492
 USEFUL LOAD PREFETCHES:          0 PREFETCH ISSUED TO LOWER LEVEL:   13262635  ACCURACY: 0
 TIMELY PREFETCHES:          0 LATE PREFETCHES: 0 DROPPED PREFETCHES: 0
LLC5 AVERAGE MISS LATENCY: 449.938 cycles
LLC6 TOTAL     ACCESS: 487244  HIT:  9595  MISS: 477649  HIT %: 1.96924  MISS %: 98.0308  AVERAGE MISS PENALTY: 543.017
LLC6 LOAD      ACCESS:  6097  HIT:     1  MISS:  6096  HIT %: 0.0164015  MISS %: 99.9836  AVERAGE MISS PENALTY: 450.218
LLC6 RFO       ACCESS: 12181  HIT:     0  MISS: 12181  HIT %:     0  MISS %:   100  AVERAGE MISS PENALTY: 500.559
LLC6 PREFETCH  ACCESS: 456799  HIT:    15  MISS: 456784  HIT %: 0.00328372  MISS %: 99.9967  AVERAGE MISS PENALTY: 548.464
LLC6 WRITEBACK ACCESS: 12167  HIT:  9579  MISS:  2588  HIT %: 78.7293  MISS %: 21.2707  AVERAGE MISS PENALTY: 0
LLC6 PREFETCH  REQUESTED:     0  ISSUED:     0  USEFUL:     0  USELESS: 3658819
 USEFUL LOAD PREFETCHES:          0 PREFETCH ISSUED TO LOWER LEVEL:   20765612  ACCURACY: 0
 TIMELY PREFETCHES:          0 LATE PREFETCHES: 0 DROPPED PREFETCHES: 0
LLC6 AVERAGE MISS LATENCY: 543.017 cycles
LLC7 TOTAL     ACCESS: 487247  HIT:  9603  MISS: 477644  HIT %: 1.97087  MISS %: 98.0291  AVERAGE MISS PENALTY: 517.948
LLC7 LOAD      ACCESS:  5959  HIT:     1  MISS:  5958  HIT %: 0.0167813  MISS %: 99.9832  AVERAGE MISS PENALTY: 441.986
LLC7 RFO       ACCESS: 12181  HIT:     0  MISS: 12181  HIT %:     0  MISS %:   100  AVERAGE MISS PENALTY: 491.116
LLC7 PREFETCH  ACCESS: 456941  HIT:    15  MISS: 456926  HIT %: 0.0032827  MISS %: 99.9967  AVERAGE MISS PENALTY: 522.577
LLC7 WRITEBACK ACCESS: 12166  HIT:  9587  MISS:  2579  HIT %: 78.8016  MISS %: 21.1984  AVERAGE MISS PENALTY: 0
LLC7 PREFETCH  REQUESTED:     0  ISSUED:     0  USEFUL:     0  USELESS: 3659163
 USEFUL LOAD PREFETCHES:          0 PREFETCH ISSUED TO LOWER LEVEL:   15959941  ACCURACY: 0
 TIMELY PREFETCHES:          0 LATE PREFETCHES: 0 DROPPED PREFETCHES: 0
LLC7 AVERAGE MISS LATENCY: 517.948 cycles
ROI Average ROB Stall Cycles:	6.01588
ROI Total ROB Stalls Cycles:	170182569
ROI TOTAL ROB counter      :	28288909
ROI Average Load ROB Stall Cycles:	21.5678
ROI Total Load ROB Stalls Cycle  :	89218146
ROI Total Load ROB stalls Counter:	4136642
Major fault: 0 Minor fault: 113072

CPU 7 cumulative IPC: 0.938612 instructions: 200000000 cycles: 213080493
ITLB TOTAL     ACCESS: 17959237  HIT: 17959237  MISS:     0  HIT %:   100  MISS %:     0  AVERAGE MISS PENALTY: 0
ITLB LOAD      ACCESS: 17959237  HIT: 17959237  MISS:     0  HIT %:   100  MISS %:     0  AVERAGE MISS PENALTY: 0
ITLB RFO       ACCESS:     0  HIT:     0  MISS:     0  HIT %:     0  MISS %:     0  AVERAGE MISS PENALTY: 0
ITLB PREFETCH  ACCESS:     0  HIT:     0  MISS:     0  HIT %:     0  MISS %:     0  AVERAGE MISS PENALTY: 0
ITLB WRITEBACK ACCESS:     0  HIT:     0  MISS:     0  HIT %:     0  MISS %:     0  AVERAGE MISS PENALTY: 0
ITLB PREFETCH  REQUESTED:     0  ISSUED:     0  USEFUL:     0  USELESS:     0
 USEFUL LOAD PREFETCHES:          0 PREFETCH ISSUED TO LOWER LEVEL:          0  ACCURACY: -nan
 TIMELY PREFETCHES:          0 LATE PREFETCHES: 0 DROPPED PREFETCHES: 0
ITLB AVERAGE MISS LATENCY: -nan cycles
DTLB TOTAL     ACCESS: 64548356  HIT: 64268978  MISS: 279378  HIT %: 99.5672  MISS %: 0.43282  AVERAGE MISS PENALTY: 96.3767
DTLB LOAD      ACCESS: 59574787  HIT: 59340155  MISS: 234632  HIT %: 99.6062  MISS %: 0.393844  AVERAGE MISS PENALTY: 112.391
DTLB RFO       ACCESS: 4973569  HIT: 4928823  MISS: 44746  HIT %: 99.1003  MISS %: 0.899676  AVERAGE MISS PENALTY: 12.4037
DTLB PREFETCH  ACCESS:     0  HIT:     0  MISS:     0  HIT %:     0  MISS %:     0  AVERAGE MISS PENALTY: 0
DTLB WRITEBACK ACCESS:     0  HIT:     0  MISS:     0  HIT %:     0  MISS %:     0  AVERAGE MISS PENALTY: 0
DTLB PREFETCH  REQUESTED:     0  ISSUED:     0  USEFUL:     0  USELESS:     0
 USEFUL LOAD PREFETCHES:          0 PREFETCH ISSUED TO LOWER LEVEL:          0  ACCURACY: -nan
 TIMELY PREFETCHES:          0 LATE PREFETCHES: 0 DROPPED PREFETCHES: 0
DTLB AVERAGE MISS LATENCY: 96.3767 cycles
STLB TOTAL     ACCESS: 279378  HIT: 219995  MISS: 59383  HIT %: 78.7446  MISS %: 21.2554  AVERAGE MISS PENALTY: 100
STLB LOAD      ACCESS: 234632  HIT: 176772  MISS: 57860  HIT %: 75.3401  MISS %: 24.6599  AVERAGE MISS PENALTY: 100
STLB RFO       ACCESS: 44746  HIT: 43223  MISS:  1523  HIT %: 96.5963  MISS %: 3.40366  AVERAGE MISS PENALTY: 100
STLB PREFETCH  ACCESS:     0  HIT:     0  MISS:     0  HIT %:     0  MISS %:     0  AVERAGE MISS PENALTY: 0
STLB WRITEBACK ACCESS:     0  HIT:     0  MISS:     0  HIT %:     0  MISS %:     0  AVERAGE MISS PENALTY: 0
STLB PREFETCH  REQUESTED:     0  ISSUED:     0  USEFUL:     0  USELESS:     0
 USEFUL LOAD PREFETCHES:          0 PREFETCH ISSUED TO LOWER LEVEL:          0  ACCURACY: -nan
 TIMELY PREFETCHES:          0 LATE PREFETCHES: 0 DROPPED PREFETCHES: 0
STLB AVERAGE MISS LATENCY: 100 cycles
L1D TOTAL     ACCESS: 98870661  HIT: 94872212  MISS: 3998449  HIT %: 95.9559  MISS %: 4.04412  AVERAGE MISS PENALTY: 2.208e+07
L1D LOAD      ACCESS: 59672024  HIT: 59056011  MISS: 616013  HIT %: 98.9677  MISS %: 1.03233  AVERAGE MISS PENALTY: 1.43317e+08
L1D RFO       ACCESS: 10905270  HIT: 10807822  MISS: 97448  HIT %: 99.1064  MISS %: 0.893586  AVERAGE MISS PENALTY: 569.89
L1D PREFETCH  ACCESS: 28293367  HIT: 25008379  MISS: 3284988  HIT %: 88.3895  MISS %: 11.6105  AVERAGE MISS PENALTY: 179.986
L1D WRITEBACK ACCESS:     0  HIT:     0  MISS:     0  HIT %:     0  MISS %:     0  AVERAGE MISS PENALTY: 0
L1D PREFETCH  REQUESTED: 44740469  ISSUED: 30980485  USEFUL: 3284909  USELESS:    87
 USEFUL LOAD PREFETCHES:    3284909 PREFETCH ISSUED TO LOWER LEVEL:   14577491  ACCURACY: 22.5341
 TIMELY PREFETCHES:    3284909 LATE PREFETCHES: 502763 DROPPED PREFETCHES: 13759984
L1D AVERAGE MISS LATENCY: 212.113 cycles
L1I TOTAL     ACCESS: 30130253  HIT: 30130253  MISS:     0  HIT %:   100  MISS %:     0  AVERAGE MISS PENALTY: 0
L1I LOAD      ACCESS: 30130253  HIT: 30130253  MISS:     0  HIT %:   100  MISS %:     0  AVERAGE MISS PENALTY: 0
L1I RFO       ACCESS:     0  HIT:     0  MISS:     0  HIT %:     0  MISS %:     0  AVERAGE MISS PENALTY: 0
L1I PREFETCH  ACCESS:     0  HIT:     0  MISS:     0  HIT %:     0  MISS %:     0  AVERAGE MISS PENALTY: 0
L1I WRITEBACK ACCESS:     0  HIT:     0  MISS:     0  HIT %:     0  MISS %:     0  AVERAGE MISS PENALTY: 0
L1I PREFETCH  REQUESTED:     0  ISSUED:     0  USEFUL:     0  USELESS:     0
 USEFUL LOAD PREFETCHES:          0 PREFETCH ISSUED TO LOWER LEVEL:          0  ACCURACY: -nan
 TIMELY PREFETCHES:          0 LATE PREFETCHES: 0 DROPPED PREFETCHES: 0
L1I AVERAGE MISS LATENCY: -nan cycles
L2C TOTAL     ACCESS: 6986467  HIT: 3185931  MISS: 3800536  HIT %: 45.6015  MISS %: 54.3985  AVERAGE MISS PENALTY: 2.03729e+07
L2C LOAD      ACCESS: 594511  HIT: 125713  MISS: 468798  HIT %: 21.1456  MISS %: 78.8544  AVERAGE MISS PENALTY: 1.65159e+08
L2C RFO       ACCESS: 97448  HIT:     0  MISS: 97448  HIT %:     0  MISS %:   100  AVERAGE MISS PENALTY: 552.987
L2C PREFETCH  ACCESS: 6195576  HIT: 2961286  MISS: 3234290  HIT %: 47.7968  MISS %: 52.2032  AVERAGE MISS PENALTY: 499.7
L2C WRITEBACK ACCESS: 98932  HIT: 98932  MISS:     0  HIT %:   100  MISS %:     0  AVERAGE MISS PENALTY: 0
L2C PREFETCH  REQUESTED: 6015730  ISSUED: 5990105  USEFUL: 119780  USELESS: 3115400
 USEFUL LOAD PREFETCHES:     119780 PREFETCH ISSUED TO LOWER LEVEL:    5317389  ACCURACY: 2.25261
 TIMELY PREFETCHES:     119780 LATE PREFETCHES: 377663 DROPPED PREFETCHES: 25625
L2C AVERAGE MISS LATENCY: 489.76 cycles
LLC0 TOTAL     ACCESS: 487239  HIT:  9651  MISS: 477588  HIT %: 1.98075  MISS %: 98.0192  AVERAGE MISS PENALTY: 445.589
LLC0 LOAD      ACCESS: 63728  HIT:     0  MISS: 63728  HIT %:     0  MISS %:   100  AVERAGE MISS PENALTY: 550.343
LLC0 RFO       ACCESS: 12181  HIT:     0  MISS: 12181  HIT %:     0  MISS %:   100  AVERAGE MISS PENALTY: 458.341
LLC0 PREFETCH  ACCESS: 399161  HIT:     4  MISS: 399157  HIT %: 0.0010021  MISS %: 99.999  AVERAGE MISS PENALTY: 431.291
LLC0 WRITEBACK ACCESS: 12169  HIT:  9647  MISS:  2522  HIT %: 79.2752  MISS %: 20.7248  AVERAGE MISS PENALTY: 0
LLC0 PREFETCH  REQUESTED:     0  ISSUED:     0  USEFUL:     0  USELESS: 3197830
 USEFUL LOAD PREFETCHES:          0 PREFETCH ISSUED TO LOWER LEVEL:   10774449  ACCURACY: 0
 TIMELY PREFETCHES:          0 LATE PREFETCHES: 0 DROPPED PREFETCHES: 0
LLC0 AVERAGE MISS LATENCY: 445.589 cycles
Deadblocks : 509991 Deadblock percentage : 800.262

LLC1 TOTAL     ACCESS: 487232  HIT:  9648  MISS: 477584  HIT %: 1.98017  MISS %: 98.0198  AVERAGE MISS PENALTY: 443.077
LLC1 LOAD      ACCESS: 19720  HIT:     0  MISS: 19720  HIT %:     0  MISS %:   100  AVERAGE MISS PENALTY: 553.048
LLC1 RFO       ACCESS: 12181  HIT:     0  MISS: 12181  HIT %:     0  MISS %:   100  AVERAGE MISS PENALTY: 460.557
LLC1 PREFETCH  ACCESS: 443162  HIT:     1  MISS: 443161  HIT %: 0.000225651  MISS %: 99.9998  AVERAGE MISS PENALTY: 440.224
LLC1 WRITEBACK ACCESS: 12169  HIT:  9647  MISS:  2522  HIT %: 79.2752  MISS %: 20.7248  AVERAGE MISS PENALTY: 0
LLC1 PREFETCH  REQUESTED:     0  ISSUED:     0  USEFUL:     0  USELESS: 3549847
 USEFUL LOAD PREFETCHES:          0 PREFETCH ISSUED TO LOWER LEVEL:    9487275  ACCURACY: 0
 TIMELY PREFETCHES:          0 LATE PREFETCHES: 0 DROPPED PREFETCHES: 0
LLC1 AVERAGE MISS LATENCY: 443.077 cycles
LLC2 TOTAL     ACCESS: 487231  HIT:  9639  MISS: 477592  HIT %: 1.97832  MISS %: 98.0217  AVERAGE MISS PENALTY: 536.612
LLC2 LOAD      ACCESS:  6266  HIT:     0  MISS:  6266  HIT %:     0  MISS %:   100  AVERAGE MISS PENALTY: 454.579
LLC2 RFO       ACCESS: 12181  HIT:     0  MISS: 12181  HIT %:     0  MISS %:   100  AVERAGE MISS PENALTY: 470.438
LLC2 PREFETCH  ACCESS: 456615  HIT:     4  MISS: 456611  HIT %: 0.000876012  MISS %: 99.9991  AVERAGE MISS PENALTY: 542.481
LLC2 WRITEBACK ACCESS: 12169  HIT:  9635  MISS:  2534  HIT %: 79.1766  MISS %: 20.8234  AVERAGE MISS PENALTY: 0
LLC2 PREFETCH  REQUESTED:     0  ISSUED:     0  USEFUL:     0  USELESS: 3657747
 USEFUL LOAD PREFETCHES:          0 PREFETCH ISSUED TO LOWER LEVEL:   15100017  ACCURACY: 0
 TIMELY PREFETCHES:          0 LATE PREFETCHES: 0 DROPPED PREFETCHES: 0
LLC2 AVERAGE MISS LATENCY: 536.612 cycles
LLC3 TOTAL     ACCESS: 487241  HIT:  9683  MISS: 477558  HIT %: 1.98731  MISS %: 98.0127  AVERAGE MISS PENALTY: 522.419
LLC3 LOAD      ACCESS:  6553  HIT:     0  MISS:  6553  HIT %:     0  MISS %:   100  AVERAGE MISS PENALTY: 423.536
LLC3 RFO       ACCESS: 12181  HIT:     0  MISS: 12181  HIT %:     0  MISS %:   100  AVERAGE MISS PENALTY: 459.299
LLC3 PREFETCH  ACCESS: 456338  HIT:     3  MISS: 456335  HIT %: 0.000657407  MISS %: 99.9993  AVERAGE MISS PENALTY: 528.374
LLC3 WRITEBACK ACCESS: 12169  HIT:  9680  MISS:  2489  HIT %: 79.5464  MISS %: 20.4536  AVERAGE MISS PENALTY: 0
LLC3 PREFETCH  REQUESTED:     0  ISSUED:     0  USEFUL:     0  USELESS: 3655030
 USEFUL LOAD PREFETCHES:          0 PREFETCH ISSUED TO LOWER LEVEL:   11963002  ACCURACY: 0
 TIMELY PREFETCHES:          0 LATE PREFETCHES: 0 DROPPED PREFETCHES: 0
LLC3 AVERAGE MISS LATENCY: 522.419 cycles
LLC4 TOTAL     ACCESS: 487252  HIT:  9579  MISS: 477673  HIT %: 1.96592  MISS %: 98.0341  AVERAGE MISS PENALTY: 451.141
LLC4 LOAD      ACCESS:  6529  HIT:     0  MISS:  6529  HIT %:     0  MISS %:   100  AVERAGE MISS PENALTY: 588.638
LLC4 RFO       ACCESS: 12181  HIT:     0  MISS: 12181  HIT %:     0  MISS %:   100  AVERAGE MISS PENALTY: 518.273
LLC4 PREFETCH  ACCESS: 456362  HIT:     2  MISS: 456360  HIT %: 0.000438249  MISS %: 99.9996  AVERAGE MISS PENALTY: 449.955
LLC4 WRITEBACK ACCESS: 12180  HIT:  9577  MISS:  2603  HIT %: 78.6289  MISS %: 21.3711  AVERAGE MISS PENALTY: 0
LLC4 PREFETCH  REQUESTED:     0  ISSUED:     0  USEFUL:     0  USELESS: 3656013
 USEFUL LOAD PREFETCHES:          0 PREFETCH ISSUED TO LOWER LEVEL:   18197348  ACCURACY: 0
 TIMELY PREFETCHES:          0 LATE PREFETCHES: 0 DROPPED PREFETCHES: 0
LLC4 AVERAGE MISS LATENCY: 451.141 cycles
LLC5 TOTAL     ACCESS: 487252  HIT:  9594  MISS: 477658  HIT %: 1.969  MISS %: 98.031  AVERAGE MISS PENALTY: 449.646
LLC5 LOAD      ACCESS:  5980  HIT:     0  MISS:  5980  HIT %:     0  MISS %:   100  AVERAGE MISS PENALTY: 589.017
LLC5 RFO       ACCESS: 12181  HIT:     0  MISS: 12181  HIT %:     0  MISS %:   100  AVERAGE MISS PENALTY: 756.21
LLC5 PREFETCH  ACCESS: 456911  HIT:     2  MISS: 456909  HIT %: 0.000437722  MISS %: 99.9996  AVERAGE MISS PENALTY: 442.196
LLC5 WRITEBACK ACCESS: 12180  HIT:  9592  MISS:  2588  HIT %: 78.7521  MISS %: 21.2479  AVERAGE MISS PENALTY: 0
LLC5 PREFETCH  REQUESTED:     0  ISSUED:     0  USEFUL:     0  USELESS: 3660492
 USEFUL LOAD PREFETCHES:          0 PREFETCH ISSUED TO LOWER LEVEL:   13262635  ACCURACY: 0
 TIMELY PREFETCHES:          0 LATE PREFETCHES: 0 DROPPED PREFETCHES: 0
LLC5 AVERAGE MISS LATENCY: 449.646 cycles
LLC6 TOTAL     ACCESS: 487231  HIT:  9586  MISS: 477645  HIT %: 1.96744  MISS %: 98.0326  AVERAGE MISS PENALTY: 543.265
LLC6 LOAD      ACCESS:  5961  HIT:     0  MISS:  5961  HIT %:     0  MISS %:   100  AVERAGE MISS PENALTY: 447.364
LLC6 RFO       ACCESS: 12181  HIT:     0  MISS: 12181  HIT %:     0  MISS %:   100  AVERAGE MISS PENALTY: 496.447
LLC6 PREFETCH  ACCESS: 456919  HIT:     2  MISS: 456917  HIT %: 0.000437714  MISS %: 99.9996  AVERAGE MISS PENALTY: 548.839
LLC6 WRITEBACK ACCESS: 12170  HIT:  9584  MISS:  2586  HIT %: 78.751  MISS %: 21.249  AVERAGE MISS PENALTY: 0
LLC6 PREFETCH  REQUESTED:     0  ISSUED:     0  USEFUL:     0  USELESS: 3658819
 USEFUL LOAD PREFETCHES:          0 PREFETCH ISSUED TO LOWER LEVEL:   20765612  ACCURACY: 0
 TIMELY PREFETCHES:          0 LATE PREFETCHES: 0 DROPPED PREFETCHES: 0
LLC6 AVERAGE MISS LATENCY: 543.265 cycles
LLC7 TOTAL     ACCESS: 487234  HIT:  9658  MISS: 477576  HIT %: 1.98221  MISS %: 98.0178  AVERAGE MISS PENALTY: 519.608
LLC7 LOAD      ACCESS:  5978  HIT:     0  MISS:  5978  HIT %:     0  MISS %:   100  AVERAGE MISS PENALTY: 449.891
LLC7 RFO       ACCESS: 12181  HIT:     0  MISS: 12181  HIT %:     0  MISS %:   100  AVERAGE MISS PENALTY: 484.122
LLC7 PREFETCH  ACCESS: 456905  HIT:     4  MISS: 456901  HIT %: 0.000875456  MISS %: 99.9991  AVERAGE MISS PENALTY: 524.327
LLC7 WRITEBACK ACCESS: 12170  HIT:  9654  MISS:  2516  HIT %: 79.3262  MISS %: 20.6738  AVERAGE MISS PENALTY: 0
LLC7 PREFETCH  REQUESTED:     0  ISSUED:     0  USEFUL:     0  USELESS: 3659163
 USEFUL LOAD PREFETCHES:          0 PREFETCH ISSUED TO LOWER LEVEL:   15959941  ACCURACY: 0
 TIMELY PREFETCHES:          0 LATE PREFETCHES: 0 DROPPED PREFETCHES: 0
LLC7 AVERAGE MISS LATENCY: 519.608 cycles
ROI Average ROB Stall Cycles:	6.02036
ROI Total ROB Stalls Cycles:	170308531
ROI TOTAL ROB counter      :	28288781
ROI Average Load ROB Stall Cycles:	21.5906
ROI Total Load ROB Stalls Cycle  :	89301219
ROI Total Load ROB stalls Counter:	4136124
Major fault: 0 Minor fault: 113042








Interconnect Stats 
LINK 0 BW : 0LINK 1 BW : 0LINK 2 BW : 0LINK 3 BW : 0LINK 4 BW : 0LINK 5 BW : 0LINK 6 BW : 0LINK 7 BW : 0
DRAM Statistics
 CHANNEL 0
 RQ ROW_BUFFER_HIT: 12546147  ROW_BUFFER_MISS: 2673550
 DBUS_CONGESTED: 8171130
 WQ ROW_BUFFER_HIT: 16774  ROW_BUFFER_MISS: 373067  FULL:     0

 CHANNEL 1
 RQ ROW_BUFFER_HIT: 12532571  ROW_BUFFER_MISS: 2687228
 DBUS_CONGESTED: 8171130
 WQ ROW_BUFFER_HIT: 16899  ROW_BUFFER_MISS: 373002  FULL:     0

 AVG_CONGESTED_CYCLE: 5
DRAM PAGES: 2097152
Allocated PAGES: 904260
L2C destructor called
L1D destructor called
L1I destructor called
STLB destructor called
DTLB destructor called
ITLB destructor called
L2C destructor called
L1D destructor called
L1I destructor called
STLB destructor called
DTLB destructor called
ITLB destructor called
L2C destructor called
L1D destructor called
L1I destructor called
STLB destructor called
DTLB destructor called
ITLB destructor called
L2C destructor called
L1D destructor called
L1I destructor called
STLB destructor called
DTLB destructor called
ITLB destructor called
L2C destructor called
L1D destructor called
L1I destructor called
STLB destructor called
DTLB destructor called
ITLB destructor called
L2C destructor called
L1D destructor called
L1I destructor called
STLB destructor called
DTLB destructor called
ITLB destructor called
L2C destructor called
L1D destructor called
L1I destructor called
STLB destructor called
DTLB destructor called
ITLB destructor called
L2C destructor called
L1D destructor called
L1I destructor called
STLB destructor called
DTLB destructor called
ITLB destructor called
