
*** ChampSim Multicore Out-of-Order Simulator ***

Warmup Instructions: 200000000
Simulation Instructions: 200000000
Number of CPUs: 8
threads:1

L1I Configuration:
L1I_SET:64
L1I_WAY:8
L1I_RQ_SIZE:64
L1I_WQ_SIZE:64
L1I_PQ_SIZE:8
L1I_MSHR_SIZE:8

L1D Configuration:
L1D_SET:64
L1D_WAY:12
L1D_RQ_SIZE:64
L1D_WQ_SIZE:64
L1D_PQ_SIZE:8
L1D_MSHR_SIZE:16

L2C Configuration:
L2C_SET:1024
L2C_WAY:8
L2C_RQ_SIZE:32
L2C_WQ_SIZE:32
L2C_PQ_SIZE:16
L2C_MSHR_SIZE:32

LLC Configuration:
LLC_SET:2048
LLC_WAY:16
LLC SLICES:8
LLC_RQ_SIZE:64
LLC_WQ_SIZE:64
LLC_PQ_SIZE:32
LLC_MSHR_SIZE:64

Interconnect OFF
Attacker deprioritize is: OFF
Off-chip DRAM Size: 8192 MB Channels: 2 Width: 64-bit Data Rate: 3200 MT/s
PAGE SIZE in KB: 4.000000 
PAGE SIZE in MB: 0.003906 
PAGE offset in bits: 12 
CEASER-S_LLC:0
MIRAGE : 1
CEASER_LATENCY:3
REMAP : OFF
Partitions : 1
Multi-Step : OFF
BFS : OFF

CPU 0 runs /home/anubhav/spec_2017/603.bwaves_s-891B.champsimtrace.xz
CPU 1 runs /home/anubhav/spec_2017/603.bwaves_s-891B.champsimtrace.xz
CPU 2 runs /home/anubhav/spec_2017/603.bwaves_s-891B.champsimtrace.xz
CPU 3 runs /home/anubhav/spec_2017/603.bwaves_s-891B.champsimtrace.xz
CPU 4 runs /home/anubhav/spec_2017/603.bwaves_s-891B.champsimtrace.xz
CPU 5 runs /home/anubhav/spec_2017/603.bwaves_s-891B.champsimtrace.xz
CPU 6 runs /home/anubhav/spec_2017/603.bwaves_s-891B.champsimtrace.xz
CPU 7 runs /home/anubhav/spec_2017/603.bwaves_s-891B.champsimtrace.xz
CPU 0 Bimodal branch predictor
Initialize Hawkeye state
Initialize Hawkeye state
Initialize Hawkeye state
Initialize Hawkeye state
Initialize Hawkeye state
Initialize Hawkeye state
Initialize Hawkeye state
Initialize Hawkeye state
CPU 1 Bimodal branch predictor
Initialize Hawkeye state
Initialize Hawkeye state
Initialize Hawkeye state
Initialize Hawkeye state
Initialize Hawkeye state
Initialize Hawkeye state
Initialize Hawkeye state
Initialize Hawkeye state
CPU 2 Bimodal branch predictor
Initialize Hawkeye state
Initialize Hawkeye state
Initialize Hawkeye state
Initialize Hawkeye state
Initialize Hawkeye state
Initialize Hawkeye state
Initialize Hawkeye state
Initialize Hawkeye state
CPU 3 Bimodal branch predictor
Initialize Hawkeye state
Initialize Hawkeye state
Initialize Hawkeye state
Initialize Hawkeye state
Initialize Hawkeye state
Initialize Hawkeye state
Initialize Hawkeye state
Initialize Hawkeye state
CPU 4 Bimodal branch predictor
Initialize Hawkeye state
Initialize Hawkeye state
Initialize Hawkeye state
Initialize Hawkeye state
Initialize Hawkeye state
Initialize Hawkeye state
Initialize Hawkeye state
Initialize Hawkeye state
CPU 5 Bimodal branch predictor
Initialize Hawkeye state
Initialize Hawkeye state
Initialize Hawkeye state
Initialize Hawkeye state
Initialize Hawkeye state
Initialize Hawkeye state
Initialize Hawkeye state
Initialize Hawkeye state
CPU 6 Bimodal branch predictor
Initialize Hawkeye state
Initialize Hawkeye state
Initialize Hawkeye state
Initialize Hawkeye state
Initialize Hawkeye state
Initialize Hawkeye state
Initialize Hawkeye state
Initialize Hawkeye state
CPU 7 Bimodal branch predictor
Initialize Hawkeye state
Initialize Hawkeye state
Initialize Hawkeye state
Initialize Hawkeye state
Initialize Hawkeye state
Initialize Hawkeye state
Initialize Hawkeye state
Initialize Hawkeye state
Heartbeat CPU 0 instructions: 10000003 cycles: 5049716 heartbeat IPC: 1.98031 cumulative IPC: 1.98031 (Simulation time: 0 hr 20 min 14 sec) 
 Total Blocks : 262144 Invalid Blocks : 56
Heartbeat CPU 1 instructions: 10000003 cycles: 5049733 heartbeat IPC: 1.9803 cumulative IPC: 1.9803 (Simulation time: 0 hr 20 min 14 sec) 
 Total Blocks : 262144 Invalid Blocks : 56
Heartbeat CPU 2 instructions: 10000003 cycles: 5049757 heartbeat IPC: 1.98029 cumulative IPC: 1.98029 (Simulation time: 0 hr 20 min 14 sec) 
 Total Blocks : 262144 Invalid Blocks : 56
Heartbeat CPU 3 instructions: 10000003 cycles: 5049769 heartbeat IPC: 1.98029 cumulative IPC: 1.98029 (Simulation time: 0 hr 20 min 14 sec) 
 Total Blocks : 262144 Invalid Blocks : 56
Heartbeat CPU 4 instructions: 10000003 cycles: 5049779 heartbeat IPC: 1.98029 cumulative IPC: 1.98029 (Simulation time: 0 hr 20 min 14 sec) 
 Total Blocks : 262144 Invalid Blocks : 56
Heartbeat CPU 5 instructions: 10000003 cycles: 5049791 heartbeat IPC: 1.98028 cumulative IPC: 1.98028 (Simulation time: 0 hr 20 min 14 sec) 
 Total Blocks : 262144 Invalid Blocks : 56
Heartbeat CPU 6 instructions: 10000003 cycles: 5049803 heartbeat IPC: 1.98028 cumulative IPC: 1.98028 (Simulation time: 0 hr 20 min 14 sec) 
 Total Blocks : 262144 Invalid Blocks : 56
Heartbeat CPU 7 instructions: 10000003 cycles: 5049819 heartbeat IPC: 1.98027 cumulative IPC: 1.98027 (Simulation time: 0 hr 20 min 14 sec) 
 Total Blocks : 262144 Invalid Blocks : 56
Heartbeat CPU 0 instructions: 20000003 cycles: 10099252 heartbeat IPC: 1.98038 cumulative IPC: 1.98035 (Simulation time: 1 hr 2 min 8 sec) 
 Total Blocks : 262144 Invalid Blocks : 0
Heartbeat CPU 1 instructions: 20000003 cycles: 10099269 heartbeat IPC: 1.98038 cumulative IPC: 1.98034 (Simulation time: 1 hr 2 min 8 sec) 
 Total Blocks : 262144 Invalid Blocks : 0
Heartbeat CPU 2 instructions: 20000003 cycles: 10099300 heartbeat IPC: 1.98038 cumulative IPC: 1.98034 (Simulation time: 1 hr 2 min 8 sec) 
 Total Blocks : 262144 Invalid Blocks : 0
Heartbeat CPU 3 instructions: 20000003 cycles: 10099314 heartbeat IPC: 1.98038 cumulative IPC: 1.98033 (Simulation time: 1 hr 2 min 8 sec) 
 Total Blocks : 262144 Invalid Blocks : 0
Heartbeat CPU 4 instructions: 20000003 cycles: 10099326 heartbeat IPC: 1.98038 cumulative IPC: 1.98033 (Simulation time: 1 hr 2 min 8 sec) 
 Total Blocks : 262144 Invalid Blocks : 0
Heartbeat CPU 5 instructions: 20000003 cycles: 10099338 heartbeat IPC: 1.98038 cumulative IPC: 1.98033 (Simulation time: 1 hr 2 min 8 sec) 
 Total Blocks : 262144 Invalid Blocks : 0
Heartbeat CPU 6 instructions: 20000003 cycles: 10099351 heartbeat IPC: 1.98038 cumulative IPC: 1.98033 (Simulation time: 1 hr 2 min 8 sec) 
 Total Blocks : 262144 Invalid Blocks : 0
Heartbeat CPU 7 instructions: 20000003 cycles: 10099372 heartbeat IPC: 1.98037 cumulative IPC: 1.98032 (Simulation time: 1 hr 2 min 8 sec) 
 Total Blocks : 262144 Invalid Blocks : 0
Heartbeat CPU 0 instructions: 30000003 cycles: 15148767 heartbeat IPC: 1.98039 cumulative IPC: 1.98036 (Simulation time: 2 hr 2 min 14 sec) 
 Total Blocks : 262144 Invalid Blocks : 0
Heartbeat CPU 1 instructions: 30000003 cycles: 15148784 heartbeat IPC: 1.98039 cumulative IPC: 1.98036 (Simulation time: 2 hr 2 min 14 sec) 
 Total Blocks : 262144 Invalid Blocks : 0
Heartbeat CPU 2 instructions: 30000003 cycles: 15148828 heartbeat IPC: 1.98038 cumulative IPC: 1.98035 (Simulation time: 2 hr 2 min 14 sec) 
 Total Blocks : 262144 Invalid Blocks : 0
Heartbeat CPU 3 instructions: 30000003 cycles: 15148838 heartbeat IPC: 1.98038 cumulative IPC: 1.98035 (Simulation time: 2 hr 2 min 14 sec) 
 Total Blocks : 262144 Invalid Blocks : 0
Heartbeat CPU 4 instructions: 30000003 cycles: 15148850 heartbeat IPC: 1.98038 cumulative IPC: 1.98035 (Simulation time: 2 hr 2 min 14 sec) 
 Total Blocks : 262144 Invalid Blocks : 0
Heartbeat CPU 5 instructions: 30000003 cycles: 15148863 heartbeat IPC: 1.98038 cumulative IPC: 1.98035 (Simulation time: 2 hr 2 min 14 sec) 
 Total Blocks : 262144 Invalid Blocks : 0
Heartbeat CPU 6 instructions: 30000003 cycles: 15148877 heartbeat IPC: 1.98038 cumulative IPC: 1.98035 (Simulation time: 2 hr 2 min 14 sec) 
 Total Blocks : 262144 Invalid Blocks : 0
Heartbeat CPU 7 instructions: 30000003 cycles: 15148906 heartbeat IPC: 1.98038 cumulative IPC: 1.98034 (Simulation time: 2 hr 2 min 14 sec) 
 Total Blocks : 262144 Invalid Blocks : 0
Heartbeat CPU 0 instructions: 40000000 cycles: 20198662 heartbeat IPC: 1.98024 cumulative IPC: 1.98033 (Simulation time: 3 hr 23 min 12 sec) 
 Total Blocks : 262144 Invalid Blocks : 0
Heartbeat CPU 1 instructions: 40000000 cycles: 20198679 heartbeat IPC: 1.98024 cumulative IPC: 1.98033 (Simulation time: 3 hr 23 min 12 sec) 
 Total Blocks : 262144 Invalid Blocks : 0
Heartbeat CPU 2 instructions: 40000000 cycles: 20198731 heartbeat IPC: 1.98024 cumulative IPC: 1.98032 (Simulation time: 3 hr 23 min 12 sec) 
 Total Blocks : 262144 Invalid Blocks : 0
Heartbeat CPU 3 instructions: 40000000 cycles: 20198748 heartbeat IPC: 1.98023 cumulative IPC: 1.98032 (Simulation time: 3 hr 23 min 12 sec) 
 Total Blocks : 262144 Invalid Blocks : 0
Heartbeat CPU 4 instructions: 40000000 cycles: 20198760 heartbeat IPC: 1.98023 cumulative IPC: 1.98032 (Simulation time: 3 hr 23 min 12 sec) 
 Total Blocks : 262144 Invalid Blocks : 0
Heartbeat CPU 5 instructions: 40000000 cycles: 20198772 heartbeat IPC: 1.98023 cumulative IPC: 1.98032 (Simulation time: 3 hr 23 min 12 sec) 
 Total Blocks : 262144 Invalid Blocks : 0
Heartbeat CPU 6 instructions: 40000000 cycles: 20198784 heartbeat IPC: 1.98023 cumulative IPC: 1.98032 (Simulation time: 3 hr 23 min 12 sec) 
 Total Blocks : 262144 Invalid Blocks : 0
Heartbeat CPU 7 instructions: 40000000 cycles: 20198809 heartbeat IPC: 1.98024 cumulative IPC: 1.98031 (Simulation time: 3 hr 23 min 12 sec) 
 Total Blocks : 262144 Invalid Blocks : 0
Heartbeat CPU 0 instructions: 50000001 cycles: 27403978 heartbeat IPC: 1.38786 cumulative IPC: 1.82455 (Simulation time: 4 hr 35 min 45 sec) 
 Total Blocks : 262144 Invalid Blocks : 0
Heartbeat CPU 1 instructions: 50000001 cycles: 27403994 heartbeat IPC: 1.38786 cumulative IPC: 1.82455 (Simulation time: 4 hr 35 min 45 sec) 
 Total Blocks : 262144 Invalid Blocks : 0
Heartbeat CPU 2 instructions: 50000001 cycles: 27404047 heartbeat IPC: 1.38786 cumulative IPC: 1.82455 (Simulation time: 4 hr 35 min 45 sec) 
 Total Blocks : 262144 Invalid Blocks : 0
Heartbeat CPU 3 instructions: 50000001 cycles: 27404063 heartbeat IPC: 1.38786 cumulative IPC: 1.82455 (Simulation time: 4 hr 35 min 45 sec) 
 Total Blocks : 262144 Invalid Blocks : 0
Heartbeat CPU 4 instructions: 50000001 cycles: 27404081 heartbeat IPC: 1.38786 cumulative IPC: 1.82455 (Simulation time: 4 hr 35 min 45 sec) 
 Total Blocks : 262144 Invalid Blocks : 0
Heartbeat CPU 5 instructions: 50000001 cycles: 27404091 heartbeat IPC: 1.38786 cumulative IPC: 1.82455 (Simulation time: 4 hr 35 min 45 sec) 
 Total Blocks : 262144 Invalid Blocks : 0
Heartbeat CPU 6 instructions: 50000001 cycles: 27404101 heartbeat IPC: 1.38786 cumulative IPC: 1.82454 (Simulation time: 4 hr 35 min 45 sec) 
 Total Blocks : 262144 Invalid Blocks : 0
Heartbeat CPU 7 instructions: 50000001 cycles: 27404124 heartbeat IPC: 1.38786 cumulative IPC: 1.82454 (Simulation time: 4 hr 35 min 45 sec) 
 Total Blocks : 262144 Invalid Blocks : 0
Heartbeat CPU 0 instructions: 60000002 cycles: 35519435 heartbeat IPC: 1.23222 cumulative IPC: 1.68922 (Simulation time: 5 hr 42 min 15 sec) 
 Total Blocks : 262144 Invalid Blocks : 0
Heartbeat CPU 1 instructions: 60000002 cycles: 35519454 heartbeat IPC: 1.23222 cumulative IPC: 1.68922 (Simulation time: 5 hr 42 min 15 sec) 
 Total Blocks : 262144 Invalid Blocks : 0
Heartbeat CPU 2 instructions: 60000002 cycles: 35519505 heartbeat IPC: 1.23222 cumulative IPC: 1.68921 (Simulation time: 5 hr 42 min 15 sec) 
 Total Blocks : 262144 Invalid Blocks : 0
Heartbeat CPU 3 instructions: 60000002 cycles: 35519524 heartbeat IPC: 1.23222 cumulative IPC: 1.68921 (Simulation time: 5 hr 42 min 15 sec) 
 Total Blocks : 262144 Invalid Blocks : 0
Heartbeat CPU 4 instructions: 60000002 cycles: 35519542 heartbeat IPC: 1.23222 cumulative IPC: 1.68921 (Simulation time: 5 hr 42 min 15 sec) 
 Total Blocks : 262144 Invalid Blocks : 0
Heartbeat CPU 5 instructions: 60000002 cycles: 35519550 heartbeat IPC: 1.23222 cumulative IPC: 1.68921 (Simulation time: 5 hr 42 min 15 sec) 
 Total Blocks : 262144 Invalid Blocks : 0
Heartbeat CPU 6 instructions: 60000002 cycles: 35519561 heartbeat IPC: 1.23222 cumulative IPC: 1.68921 (Simulation time: 5 hr 42 min 15 sec) 
 Total Blocks : 262144 Invalid Blocks : 0
Heartbeat CPU 7 instructions: 60000002 cycles: 35519585 heartbeat IPC: 1.23222 cumulative IPC: 1.68921 (Simulation time: 5 hr 42 min 15 sec) 
 Total Blocks : 262144 Invalid Blocks : 0
Heartbeat CPU 0 instructions: 70000000 cycles: 43635031 heartbeat IPC: 1.2322 cumulative IPC: 1.60422 (Simulation time: 6 hr 54 min 55 sec) 
 Total Blocks : 262144 Invalid Blocks : 0
Heartbeat CPU 1 instructions: 70000000 cycles: 43635047 heartbeat IPC: 1.2322 cumulative IPC: 1.60422 (Simulation time: 6 hr 54 min 55 sec) 
 Total Blocks : 262144 Invalid Blocks : 0
Heartbeat CPU 2 instructions: 70000000 cycles: 43635102 heartbeat IPC: 1.2322 cumulative IPC: 1.60421 (Simulation time: 6 hr 54 min 55 sec) 
 Total Blocks : 262144 Invalid Blocks : 0
Heartbeat CPU 3 instructions: 70000000 cycles: 43635123 heartbeat IPC: 1.23219 cumulative IPC: 1.60421 (Simulation time: 6 hr 54 min 55 sec) 
 Total Blocks : 262144 Invalid Blocks : 0
Heartbeat CPU 4 instructions: 70000000 cycles: 43635139 heartbeat IPC: 1.2322 cumulative IPC: 1.60421 (Simulation time: 6 hr 54 min 55 sec) 
 Total Blocks : 262144 Invalid Blocks : 0
Heartbeat CPU 5 instructions: 70000000 cycles: 43635147 heartbeat IPC: 1.2322 cumulative IPC: 1.60421 (Simulation time: 6 hr 54 min 55 sec) 
 Total Blocks : 262144 Invalid Blocks : 0
Heartbeat CPU 6 instructions: 70000000 cycles: 43635158 heartbeat IPC: 1.2322 cumulative IPC: 1.60421 (Simulation time: 6 hr 54 min 55 sec) 
 Total Blocks : 262144 Invalid Blocks : 0
Heartbeat CPU 7 instructions: 70000000 cycles: 43635183 heartbeat IPC: 1.23219 cumulative IPC: 1.60421 (Simulation time: 6 hr 54 min 55 sec) 
 Total Blocks : 262144 Invalid Blocks : 0
Heartbeat CPU 0 instructions: 80000001 cycles: 51750438 heartbeat IPC: 1.23222 cumulative IPC: 1.54588 (Simulation time: 8 hr 18 min 9 sec) 
 Total Blocks : 262144 Invalid Blocks : 0
Heartbeat CPU 1 instructions: 80000001 cycles: 51750453 heartbeat IPC: 1.23222 cumulative IPC: 1.54588 (Simulation time: 8 hr 18 min 9 sec) 
 Total Blocks : 262144 Invalid Blocks : 0
Heartbeat CPU 2 instructions: 80000001 cycles: 51750506 heartbeat IPC: 1.23222 cumulative IPC: 1.54588 (Simulation time: 8 hr 18 min 9 sec) 
 Total Blocks : 262144 Invalid Blocks : 0
Heartbeat CPU 3 instructions: 80000001 cycles: 51750531 heartbeat IPC: 1.23222 cumulative IPC: 1.54588 (Simulation time: 8 hr 18 min 9 sec) 
 Total Blocks : 262144 Invalid Blocks : 0
Heartbeat CPU 4 instructions: 80000001 cycles: 51750545 heartbeat IPC: 1.23222 cumulative IPC: 1.54588 (Simulation time: 8 hr 18 min 9 sec) 
 Total Blocks : 262144 Invalid Blocks : 0
Heartbeat CPU 5 instructions: 80000001 cycles: 51750552 heartbeat IPC: 1.23222 cumulative IPC: 1.54588 (Simulation time: 8 hr 18 min 9 sec) 
 Total Blocks : 262144 Invalid Blocks : 0
Heartbeat CPU 6 instructions: 80000001 cycles: 51750564 heartbeat IPC: 1.23222 cumulative IPC: 1.54588 (Simulation time: 8 hr 18 min 9 sec) 
 Total Blocks : 262144 Invalid Blocks : 0
Heartbeat CPU 7 instructions: 80000001 cycles: 51750592 heartbeat IPC: 1.23222 cumulative IPC: 1.54588 (Simulation time: 8 hr 18 min 9 sec) 
 Total Blocks : 262144 Invalid Blocks : 0
Heartbeat CPU 0 instructions: 90000000 cycles: 59865881 heartbeat IPC: 1.23222 cumulative IPC: 1.50336 (Simulation time: 9 hr 45 min 15 sec) 
 Total Blocks : 262144 Invalid Blocks : 0
Heartbeat CPU 1 instructions: 90000000 cycles: 59865897 heartbeat IPC: 1.23222 cumulative IPC: 1.50336 (Simulation time: 9 hr 45 min 15 sec) 
 Total Blocks : 262144 Invalid Blocks : 0
Heartbeat CPU 2 instructions: 90000000 cycles: 59865952 heartbeat IPC: 1.23222 cumulative IPC: 1.50336 (Simulation time: 9 hr 45 min 15 sec) 
 Total Blocks : 262144 Invalid Blocks : 0
Heartbeat CPU 3 instructions: 90000000 cycles: 59865974 heartbeat IPC: 1.23222 cumulative IPC: 1.50336 (Simulation time: 9 hr 45 min 16 sec) 
 Total Blocks : 262144 Invalid Blocks : 0
Heartbeat CPU 4 instructions: 90000000 cycles: 59865991 heartbeat IPC: 1.23222 cumulative IPC: 1.50336 (Simulation time: 9 hr 45 min 16 sec) 
 Total Blocks : 262144 Invalid Blocks : 0
Heartbeat CPU 5 instructions: 90000000 cycles: 59865998 heartbeat IPC: 1.23222 cumulative IPC: 1.50336 (Simulation time: 9 hr 45 min 16 sec) 
 Total Blocks : 262144 Invalid Blocks : 0
Heartbeat CPU 6 instructions: 90000000 cycles: 59866008 heartbeat IPC: 1.23222 cumulative IPC: 1.50336 (Simulation time: 9 hr 45 min 16 sec) 
 Total Blocks : 262144 Invalid Blocks : 0
Heartbeat CPU 7 instructions: 90000000 cycles: 59866040 heartbeat IPC: 1.23222 cumulative IPC: 1.50336 (Simulation time: 9 hr 45 min 16 sec) 
 Total Blocks : 262144 Invalid Blocks : 0
Heartbeat CPU 0 instructions: 100000000 cycles: 67981387 heartbeat IPC: 1.23221 cumulative IPC: 1.47099 (Simulation time: 11 hr 15 min 50 sec) 
 Total Blocks : 262144 Invalid Blocks : 0
Heartbeat CPU 1 instructions: 100000000 cycles: 67981400 heartbeat IPC: 1.23221 cumulative IPC: 1.47099 (Simulation time: 11 hr 15 min 50 sec) 
 Total Blocks : 262144 Invalid Blocks : 0
Heartbeat CPU 2 instructions: 100000000 cycles: 67981452 heartbeat IPC: 1.23221 cumulative IPC: 1.47099 (Simulation time: 11 hr 15 min 50 sec) 
 Total Blocks : 262144 Invalid Blocks : 0
Heartbeat CPU 3 instructions: 100000000 cycles: 67981473 heartbeat IPC: 1.23221 cumulative IPC: 1.47099 (Simulation time: 11 hr 15 min 50 sec) 
 Total Blocks : 262144 Invalid Blocks : 0
Heartbeat CPU 4 instructions: 100000000 cycles: 67981492 heartbeat IPC: 1.23221 cumulative IPC: 1.47099 (Simulation time: 11 hr 15 min 50 sec) 
 Total Blocks : 262144 Invalid Blocks : 0
Heartbeat CPU 5 instructions: 100000000 cycles: 67981503 heartbeat IPC: 1.23221 cumulative IPC: 1.47099 (Simulation time: 11 hr 15 min 50 sec) 
 Total Blocks : 262144 Invalid Blocks : 0
Heartbeat CPU 6 instructions: 100000000 cycles: 67981512 heartbeat IPC: 1.23221 cumulative IPC: 1.47099 (Simulation time: 11 hr 15 min 50 sec) 
 Total Blocks : 262144 Invalid Blocks : 0
Heartbeat CPU 7 instructions: 100000000 cycles: 67981545 heartbeat IPC: 1.23221 cumulative IPC: 1.47099 (Simulation time: 11 hr 15 min 50 sec) 
 Total Blocks : 262144 Invalid Blocks : 0
Heartbeat CPU 0 instructions: 110000000 cycles: 76096984 heartbeat IPC: 1.2322 cumulative IPC: 1.44552 (Simulation time: 12 hr 46 min 30 sec) 
 Total Blocks : 262144 Invalid Blocks : 0
Heartbeat CPU 1 instructions: 110000000 cycles: 76096997 heartbeat IPC: 1.2322 cumulative IPC: 1.44552 (Simulation time: 12 hr 46 min 30 sec) 
 Total Blocks : 262144 Invalid Blocks : 0
Heartbeat CPU 2 instructions: 110000000 cycles: 76097048 heartbeat IPC: 1.2322 cumulative IPC: 1.44552 (Simulation time: 12 hr 46 min 30 sec) 
 Total Blocks : 262144 Invalid Blocks : 0
Heartbeat CPU 3 instructions: 110000000 cycles: 76097072 heartbeat IPC: 1.23219 cumulative IPC: 1.44552 (Simulation time: 12 hr 46 min 30 sec) 
 Total Blocks : 262144 Invalid Blocks : 0
Heartbeat CPU 4 instructions: 110000000 cycles: 76097087 heartbeat IPC: 1.2322 cumulative IPC: 1.44552 (Simulation time: 12 hr 46 min 30 sec) 
 Total Blocks : 262144 Invalid Blocks : 0
Heartbeat CPU 5 instructions: 110000000 cycles: 76097101 heartbeat IPC: 1.2322 cumulative IPC: 1.44552 (Simulation time: 12 hr 46 min 30 sec) 
 Total Blocks : 262144 Invalid Blocks : 0
Heartbeat CPU 6 instructions: 110000000 cycles: 76097109 heartbeat IPC: 1.2322 cumulative IPC: 1.44552 (Simulation time: 12 hr 46 min 30 sec) 
 Total Blocks : 262144 Invalid Blocks : 0
Heartbeat CPU 7 instructions: 110000000 cycles: 76097144 heartbeat IPC: 1.23219 cumulative IPC: 1.44552 (Simulation time: 12 hr 46 min 30 sec) 
 Total Blocks : 262144 Invalid Blocks : 0
Heartbeat CPU 0 instructions: 120000000 cycles: 84212362 heartbeat IPC: 1.23223 cumulative IPC: 1.42497 (Simulation time: 14 hr 21 min 30 sec) 
 Total Blocks : 262144 Invalid Blocks : 0
Heartbeat CPU 1 instructions: 120000000 cycles: 84212372 heartbeat IPC: 1.23223 cumulative IPC: 1.42497 (Simulation time: 14 hr 21 min 30 sec) 
 Total Blocks : 262144 Invalid Blocks : 0
Heartbeat CPU 2 instructions: 120000000 cycles: 84212425 heartbeat IPC: 1.23223 cumulative IPC: 1.42497 (Simulation time: 14 hr 21 min 30 sec) 
 Total Blocks : 262144 Invalid Blocks : 0
Heartbeat CPU 3 instructions: 120000000 cycles: 84212450 heartbeat IPC: 1.23223 cumulative IPC: 1.42497 (Simulation time: 14 hr 21 min 30 sec) 
 Total Blocks : 262144 Invalid Blocks : 0
Heartbeat CPU 4 instructions: 120000000 cycles: 84212463 heartbeat IPC: 1.23223 cumulative IPC: 1.42497 (Simulation time: 14 hr 21 min 30 sec) 
 Total Blocks : 262144 Invalid Blocks : 0
Heartbeat CPU 5 instructions: 120000000 cycles: 84212482 heartbeat IPC: 1.23223 cumulative IPC: 1.42497 (Simulation time: 14 hr 21 min 30 sec) 
 Total Blocks : 262144 Invalid Blocks : 0
Heartbeat CPU 6 instructions: 120000000 cycles: 84212488 heartbeat IPC: 1.23223 cumulative IPC: 1.42497 (Simulation time: 14 hr 21 min 30 sec) 
 Total Blocks : 262144 Invalid Blocks : 0
Heartbeat CPU 7 instructions: 120000000 cycles: 84212522 heartbeat IPC: 1.23223 cumulative IPC: 1.42497 (Simulation time: 14 hr 21 min 30 sec) 
 Total Blocks : 262144 Invalid Blocks : 0
Heartbeat CPU 0 instructions: 130000001 cycles: 92327854 heartbeat IPC: 1.23221 cumulative IPC: 1.40803 (Simulation time: 16 hr 2 min 22 sec) 
 Total Blocks : 262144 Invalid Blocks : 0
Heartbeat CPU 1 instructions: 130000001 cycles: 92327867 heartbeat IPC: 1.23221 cumulative IPC: 1.40803 (Simulation time: 16 hr 2 min 22 sec) 
 Total Blocks : 262144 Invalid Blocks : 0
Heartbeat CPU 2 instructions: 130000001 cycles: 92327917 heartbeat IPC: 1.23221 cumulative IPC: 1.40802 (Simulation time: 16 hr 2 min 22 sec) 
 Total Blocks : 262144 Invalid Blocks : 0
Heartbeat CPU 3 instructions: 130000001 cycles: 92327945 heartbeat IPC: 1.23221 cumulative IPC: 1.40802 (Simulation time: 16 hr 2 min 22 sec) 
 Total Blocks : 262144 Invalid Blocks : 0
Heartbeat CPU 4 instructions: 130000001 cycles: 92327955 heartbeat IPC: 1.23221 cumulative IPC: 1.40802 (Simulation time: 16 hr 2 min 22 sec) 
 Total Blocks : 262144 Invalid Blocks : 0
Heartbeat CPU 5 instructions: 130000001 cycles: 92327976 heartbeat IPC: 1.23221 cumulative IPC: 1.40802 (Simulation time: 16 hr 2 min 22 sec) 
 Total Blocks : 262144 Invalid Blocks : 0
Heartbeat CPU 6 instructions: 130000001 cycles: 92327980 heartbeat IPC: 1.23221 cumulative IPC: 1.40802 (Simulation time: 16 hr 2 min 22 sec) 
 Total Blocks : 262144 Invalid Blocks : 0
Heartbeat CPU 7 instructions: 130000001 cycles: 92328012 heartbeat IPC: 1.23221 cumulative IPC: 1.40802 (Simulation time: 16 hr 2 min 22 sec) 
 Total Blocks : 262144 Invalid Blocks : 0
Heartbeat CPU 0 instructions: 140000002 cycles: 100443391 heartbeat IPC: 1.2322 cumulative IPC: 1.39382 (Simulation time: 17 hr 47 min 42 sec) 
 Total Blocks : 262144 Invalid Blocks : 0
Heartbeat CPU 1 instructions: 140000002 cycles: 100443405 heartbeat IPC: 1.2322 cumulative IPC: 1.39382 (Simulation time: 17 hr 47 min 42 sec) 
 Total Blocks : 262144 Invalid Blocks : 0
Heartbeat CPU 2 instructions: 140000002 cycles: 100443454 heartbeat IPC: 1.2322 cumulative IPC: 1.39382 (Simulation time: 17 hr 47 min 42 sec) 
 Total Blocks : 262144 Invalid Blocks : 0
Heartbeat CPU 3 instructions: 140000002 cycles: 100443479 heartbeat IPC: 1.2322 cumulative IPC: 1.39382 (Simulation time: 17 hr 47 min 42 sec) 
 Total Blocks : 262144 Invalid Blocks : 0
Heartbeat CPU 4 instructions: 140000002 cycles: 100443492 heartbeat IPC: 1.2322 cumulative IPC: 1.39382 (Simulation time: 17 hr 47 min 42 sec) 
 Total Blocks : 262144 Invalid Blocks : 0
Heartbeat CPU 5 instructions: 140000002 cycles: 100443513 heartbeat IPC: 1.2322 cumulative IPC: 1.39382 (Simulation time: 17 hr 47 min 42 sec) 
 Total Blocks : 262144 Invalid Blocks : 0
Heartbeat CPU 6 instructions: 140000002 cycles: 100443518 heartbeat IPC: 1.2322 cumulative IPC: 1.39382 (Simulation time: 17 hr 47 min 42 sec) 
 Total Blocks : 262144 Invalid Blocks : 0
Heartbeat CPU 7 instructions: 140000002 cycles: 100443552 heartbeat IPC: 1.2322 cumulative IPC: 1.39382 (Simulation time: 17 hr 47 min 42 sec) 
 Total Blocks : 262144 Invalid Blocks : 0
Heartbeat CPU 0 instructions: 150000000 cycles: 108558908 heartbeat IPC: 1.23221 cumulative IPC: 1.38174 (Simulation time: 19 hr 36 min 34 sec) 
 Total Blocks : 262144 Invalid Blocks : 0
Heartbeat CPU 1 instructions: 150000000 cycles: 108558920 heartbeat IPC: 1.23221 cumulative IPC: 1.38174 (Simulation time: 19 hr 36 min 34 sec) 
 Total Blocks : 262144 Invalid Blocks : 0
Heartbeat CPU 2 instructions: 150000000 cycles: 108558972 heartbeat IPC: 1.23221 cumulative IPC: 1.38174 (Simulation time: 19 hr 36 min 34 sec) 
 Total Blocks : 262144 Invalid Blocks : 0
Heartbeat CPU 3 instructions: 150000000 cycles: 108558993 heartbeat IPC: 1.23221 cumulative IPC: 1.38174 (Simulation time: 19 hr 36 min 34 sec) 
 Total Blocks : 262144 Invalid Blocks : 0
Heartbeat CPU 4 instructions: 150000000 cycles: 108559008 heartbeat IPC: 1.23221 cumulative IPC: 1.38174 (Simulation time: 19 hr 36 min 34 sec) 
 Total Blocks : 262144 Invalid Blocks : 0
Heartbeat CPU 5 instructions: 150000000 cycles: 108559029 heartbeat IPC: 1.23221 cumulative IPC: 1.38174 (Simulation time: 19 hr 36 min 34 sec) 
 Total Blocks : 262144 Invalid Blocks : 0
Heartbeat CPU 6 instructions: 150000000 cycles: 108559037 heartbeat IPC: 1.23221 cumulative IPC: 1.38174 (Simulation time: 19 hr 36 min 34 sec) 
 Total Blocks : 262144 Invalid Blocks : 0
Heartbeat CPU 7 instructions: 150000000 cycles: 108559064 heartbeat IPC: 1.23221 cumulative IPC: 1.38174 (Simulation time: 19 hr 36 min 35 sec) 
 Total Blocks : 262144 Invalid Blocks : 0
Heartbeat CPU 0 instructions: 160000000 cycles: 116674340 heartbeat IPC: 1.23222 cumulative IPC: 1.37134 (Simulation time: 21 hr 31 min 29 sec) 
 Total Blocks : 262144 Invalid Blocks : 0
Heartbeat CPU 1 instructions: 160000000 cycles: 116674350 heartbeat IPC: 1.23222 cumulative IPC: 1.37134 (Simulation time: 21 hr 31 min 29 sec) 
 Total Blocks : 262144 Invalid Blocks : 0
Heartbeat CPU 2 instructions: 160000000 cycles: 116674404 heartbeat IPC: 1.23222 cumulative IPC: 1.37134 (Simulation time: 21 hr 31 min 29 sec) 
 Total Blocks : 262144 Invalid Blocks : 0
Heartbeat CPU 3 instructions: 160000000 cycles: 116674424 heartbeat IPC: 1.23222 cumulative IPC: 1.37134 (Simulation time: 21 hr 31 min 29 sec) 
 Total Blocks : 262144 Invalid Blocks : 0
Heartbeat CPU 4 instructions: 160000000 cycles: 116674439 heartbeat IPC: 1.23222 cumulative IPC: 1.37134 (Simulation time: 21 hr 31 min 29 sec) 
 Total Blocks : 262144 Invalid Blocks : 0
Heartbeat CPU 5 instructions: 160000000 cycles: 116674461 heartbeat IPC: 1.23222 cumulative IPC: 1.37134 (Simulation time: 21 hr 31 min 29 sec) 
 Total Blocks : 262144 Invalid Blocks : 0
Heartbeat CPU 6 instructions: 160000000 cycles: 116674468 heartbeat IPC: 1.23222 cumulative IPC: 1.37134 (Simulation time: 21 hr 31 min 29 sec) 
 Total Blocks : 262144 Invalid Blocks : 0
Heartbeat CPU 7 instructions: 160000000 cycles: 116674497 heartbeat IPC: 1.23222 cumulative IPC: 1.37134 (Simulation time: 21 hr 31 min 29 sec) 
 Total Blocks : 262144 Invalid Blocks : 0
Heartbeat CPU 0 instructions: 170000003 cycles: 124789796 heartbeat IPC: 1.23222 cumulative IPC: 1.36229 (Simulation time: 22 hr 43 min 51 sec) 
 Total Blocks : 262144 Invalid Blocks : 0
Heartbeat CPU 1 instructions: 170000003 cycles: 124789812 heartbeat IPC: 1.23222 cumulative IPC: 1.36229 (Simulation time: 22 hr 43 min 51 sec) 
 Total Blocks : 262144 Invalid Blocks : 0
Heartbeat CPU 2 instructions: 170000003 cycles: 124789864 heartbeat IPC: 1.23222 cumulative IPC: 1.36229 (Simulation time: 22 hr 43 min 51 sec) 
 Total Blocks : 262144 Invalid Blocks : 0
Heartbeat CPU 3 instructions: 170000003 cycles: 124789880 heartbeat IPC: 1.23222 cumulative IPC: 1.36229 (Simulation time: 22 hr 43 min 51 sec) 
 Total Blocks : 262144 Invalid Blocks : 0
Heartbeat CPU 4 instructions: 170000003 cycles: 124789894 heartbeat IPC: 1.23222 cumulative IPC: 1.36229 (Simulation time: 22 hr 43 min 51 sec) 
 Total Blocks : 262144 Invalid Blocks : 0
Heartbeat CPU 5 instructions: 170000003 cycles: 124789921 heartbeat IPC: 1.23222 cumulative IPC: 1.36229 (Simulation time: 22 hr 43 min 51 sec) 
 Total Blocks : 262144 Invalid Blocks : 0
Heartbeat CPU 6 instructions: 170000003 cycles: 124789925 heartbeat IPC: 1.23222 cumulative IPC: 1.36229 (Simulation time: 22 hr 43 min 51 sec) 
 Total Blocks : 262144 Invalid Blocks : 0
Heartbeat CPU 7 instructions: 170000003 cycles: 124789957 heartbeat IPC: 1.23222 cumulative IPC: 1.36229 (Simulation time: 22 hr 43 min 51 sec) 
 Total Blocks : 262144 Invalid Blocks : 0
Heartbeat CPU 0 instructions: 180000000 cycles: 132905352 heartbeat IPC: 1.2322 cumulative IPC: 1.35435 (Simulation time: 22 hr 49 min 53 sec) 
 Total Blocks : 262144 Invalid Blocks : 0
Heartbeat CPU 1 instructions: 180000000 cycles: 132905368 heartbeat IPC: 1.2322 cumulative IPC: 1.35435 (Simulation time: 22 hr 49 min 53 sec) 
 Total Blocks : 262144 Invalid Blocks : 0
Heartbeat CPU 2 instructions: 180000000 cycles: 132905426 heartbeat IPC: 1.2322 cumulative IPC: 1.35435 (Simulation time: 22 hr 49 min 53 sec) 
 Total Blocks : 262144 Invalid Blocks : 0
Heartbeat CPU 3 instructions: 180000000 cycles: 132905436 heartbeat IPC: 1.2322 cumulative IPC: 1.35435 (Simulation time: 22 hr 49 min 53 sec) 
 Total Blocks : 262144 Invalid Blocks : 0
Heartbeat CPU 4 instructions: 180000000 cycles: 132905450 heartbeat IPC: 1.2322 cumulative IPC: 1.35435 (Simulation time: 22 hr 49 min 53 sec) 
 Total Blocks : 262144 Invalid Blocks : 0
Heartbeat CPU 5 instructions: 180000000 cycles: 132905477 heartbeat IPC: 1.2322 cumulative IPC: 1.35435 (Simulation time: 22 hr 49 min 53 sec) 
 Total Blocks : 262144 Invalid Blocks : 0
Heartbeat CPU 6 instructions: 180000000 cycles: 132905481 heartbeat IPC: 1.2322 cumulative IPC: 1.35435 (Simulation time: 22 hr 49 min 53 sec) 
 Total Blocks : 262144 Invalid Blocks : 0
Heartbeat CPU 7 instructions: 180000000 cycles: 132905513 heartbeat IPC: 1.2322 cumulative IPC: 1.35435 (Simulation time: 22 hr 49 min 54 sec) 
 Total Blocks : 262144 Invalid Blocks : 0
Heartbeat CPU 0 instructions: 190000000 cycles: 140837183 heartbeat IPC: 1.26074 cumulative IPC: 1.34908 (Simulation time: 23 hr 44 min 37 sec) 
 Total Blocks : 262144 Invalid Blocks : 0
Heartbeat CPU 1 instructions: 190000000 cycles: 140837201 heartbeat IPC: 1.26074 cumulative IPC: 1.34908 (Simulation time: 23 hr 44 min 37 sec) 
 Total Blocks : 262144 Invalid Blocks : 0
Heartbeat CPU 2 instructions: 190000000 cycles: 140837262 heartbeat IPC: 1.26074 cumulative IPC: 1.34907 (Simulation time: 23 hr 44 min 37 sec) 
 Total Blocks : 262144 Invalid Blocks : 0
Heartbeat CPU 3 instructions: 190000000 cycles: 140837273 heartbeat IPC: 1.26074 cumulative IPC: 1.34907 (Simulation time: 23 hr 44 min 37 sec) 
 Total Blocks : 262144 Invalid Blocks : 0
Heartbeat CPU 4 instructions: 190000000 cycles: 140837283 heartbeat IPC: 1.26074 cumulative IPC: 1.34907 (Simulation time: 23 hr 44 min 37 sec) 
 Total Blocks : 262144 Invalid Blocks : 0
Heartbeat CPU 5 instructions: 190000000 cycles: 140837307 heartbeat IPC: 1.26074 cumulative IPC: 1.34907 (Simulation time: 23 hr 44 min 37 sec) 
 Total Blocks : 262144 Invalid Blocks : 0
Heartbeat CPU 6 instructions: 190000000 cycles: 140837316 heartbeat IPC: 1.26074 cumulative IPC: 1.34907 (Simulation time: 23 hr 44 min 38 sec) 
 Total Blocks : 262144 Invalid Blocks : 0
Heartbeat CPU 7 instructions: 190000000 cycles: 140837344 heartbeat IPC: 1.26074 cumulative IPC: 1.34907 (Simulation time: 23 hr 44 min 38 sec) 
 Total Blocks : 262144 Invalid Blocks : 0
Heartbeat CPU 0 instructions: 200000003 cycles: 148554813 heartbeat IPC: 1.29574 cumulative IPC: 1.3463 (Simulation time: 25 hr 37 min 37 sec) 
 Total Blocks : 262144 Invalid Blocks : 0
Heartbeat CPU 1 instructions: 200000003 cycles: 148554833 heartbeat IPC: 1.29573 cumulative IPC: 1.3463 (Simulation time: 25 hr 37 min 37 sec) 
 Total Blocks : 262144 Invalid Blocks : 0
Heartbeat CPU 2 instructions: 200000003 cycles: 148554893 heartbeat IPC: 1.29573 cumulative IPC: 1.3463 (Simulation time: 25 hr 37 min 37 sec) 
 Total Blocks : 262144 Invalid Blocks : 0
Heartbeat CPU 3 instructions: 200000003 cycles: 148554902 heartbeat IPC: 1.29574 cumulative IPC: 1.3463 (Simulation time: 25 hr 37 min 37 sec) 
 Total Blocks : 262144 Invalid Blocks : 0
Heartbeat CPU 4 instructions: 200000003 cycles: 148554913 heartbeat IPC: 1.29574 cumulative IPC: 1.3463 (Simulation time: 25 hr 37 min 37 sec) 
 Total Blocks : 262144 Invalid Blocks : 0
Heartbeat CPU 5 instructions: 200000003 cycles: 148554933 heartbeat IPC: 1.29574 cumulative IPC: 1.3463 (Simulation time: 25 hr 37 min 37 sec) 
 Total Blocks : 262144 Invalid Blocks : 0
Heartbeat CPU 6 instructions: 200000003 cycles: 148554946 heartbeat IPC: 1.29574 cumulative IPC: 1.3463 (Simulation time: 25 hr 37 min 37 sec) 
 Total Blocks : 262144 Invalid Blocks : 0
Heartbeat CPU 7 instructions: 200000003 cycles: 148554974 heartbeat IPC: 1.29574 cumulative IPC: 1.3463 (Simulation time: 25 hr 37 min 37 sec) 
 Total Blocks : 262144 Invalid Blocks : 0

Warmup complete CPU 0 instructions: 200000208 cycles: 148554974 (Simulation time: 25 hr 37 min 37 sec) 
Warmup complete CPU 1 instructions: 200000174 cycles: 148554974 (Simulation time: 25 hr 37 min 37 sec) 
Warmup complete CPU 2 instructions: 200000113 cycles: 148554974 (Simulation time: 25 hr 37 min 37 sec) 
Warmup complete CPU 3 instructions: 200000082 cycles: 148554974 (Simulation time: 25 hr 37 min 37 sec) 
Warmup complete CPU 4 instructions: 200000070 cycles: 148554974 (Simulation time: 25 hr 37 min 37 sec) 
Warmup complete CPU 5 instructions: 200000064 cycles: 148554974 (Simulation time: 25 hr 37 min 37 sec) 
Warmup complete CPU 6 instructions: 200000035 cycles: 148554974 (Simulation time: 25 hr 37 min 37 sec) 
Warmup complete CPU 7 instructions: 200000003 cycles: 148554974 (Simulation time: 25 hr 37 min 37 sec) 

Heartbeat CPU 2 instructions: 210000001 cycles: 167084493 heartbeat IPC: 0.539677 cumulative IPC: 0.539673 (Simulation time: 27 hr 43 min 6 sec) 
 Total Blocks : 262144 Invalid Blocks : 0
Heartbeat CPU 1 instructions: 210000001 cycles: 167094624 heartbeat IPC: 0.53938 cumulative IPC: 0.539375 (Simulation time: 27 hr 43 min 10 sec) 
 Total Blocks : 262144 Invalid Blocks : 0
Heartbeat CPU 3 instructions: 210000000 cycles: 167095817 heartbeat IPC: 0.539348 cumulative IPC: 0.539345 (Simulation time: 27 hr 43 min 11 sec) 
 Total Blocks : 262144 Invalid Blocks : 0
Heartbeat CPU 6 instructions: 210000000 cycles: 167097486 heartbeat IPC: 0.5393 cumulative IPC: 0.539299 (Simulation time: 27 hr 43 min 11 sec) 
 Total Blocks : 262144 Invalid Blocks : 0
Heartbeat CPU 4 instructions: 210000001 cycles: 167103236 heartbeat IPC: 0.539132 cumulative IPC: 0.53913 (Simulation time: 27 hr 43 min 14 sec) 
 Total Blocks : 262144 Invalid Blocks : 0
Heartbeat CPU 5 instructions: 210000001 cycles: 167116800 heartbeat IPC: 0.538739 cumulative IPC: 0.538737 (Simulation time: 27 hr 43 min 19 sec) 
 Total Blocks : 262144 Invalid Blocks : 0
Heartbeat CPU 0 instructions: 210000000 cycles: 167118641 heartbeat IPC: 0.538682 cumulative IPC: 0.538675 (Simulation time: 27 hr 43 min 21 sec) 
 Total Blocks : 262144 Invalid Blocks : 0
Heartbeat CPU 7 instructions: 210000001 cycles: 167214959 heartbeat IPC: 0.535906 cumulative IPC: 0.535906 (Simulation time: 27 hr 44 min 4 sec) 
 Total Blocks : 262144 Invalid Blocks : 0
Heartbeat CPU 3 instructions: 220000000 cycles: 185827733 heartbeat IPC: 0.533848 cumulative IPC: 0.536583 (Simulation time: 30 hr 1 min 22 sec) 
 Total Blocks : 262144 Invalid Blocks : 0
Heartbeat CPU 2 instructions: 220000000 cycles: 185830203 heartbeat IPC: 0.533455 cumulative IPC: 0.536546 (Simulation time: 30 hr 1 min 23 sec) 
 Total Blocks : 262144 Invalid Blocks : 0
Heartbeat CPU 4 instructions: 220000000 cycles: 185837628 heartbeat IPC: 0.533778 cumulative IPC: 0.536441 (Simulation time: 30 hr 1 min 27 sec) 
 Total Blocks : 262144 Invalid Blocks : 0
Heartbeat CPU 1 instructions: 220000000 cycles: 185844250 heartbeat IPC: 0.533344 cumulative IPC: 0.536343 (Simulation time: 30 hr 1 min 30 sec) 
 Total Blocks : 262144 Invalid Blocks : 0
Heartbeat CPU 6 instructions: 220000000 cycles: 185846433 heartbeat IPC: 0.533363 cumulative IPC: 0.536315 (Simulation time: 30 hr 1 min 31 sec) 
 Total Blocks : 262144 Invalid Blocks : 0
Heartbeat CPU 5 instructions: 220000000 cycles: 185988003 heartbeat IPC: 0.529908 cumulative IPC: 0.534286 (Simulation time: 30 hr 2 min 33 sec) 
 Total Blocks : 262144 Invalid Blocks : 0
Heartbeat CPU 0 instructions: 220000000 cycles: 186096162 heartbeat IPC: 0.526939 cumulative IPC: 0.532743 (Simulation time: 30 hr 3 min 20 sec) 
 Total Blocks : 262144 Invalid Blocks : 0
Heartbeat CPU 7 instructions: 220000000 cycles: 186273302 heartbeat IPC: 0.524705 cumulative IPC: 0.530246 (Simulation time: 30 hr 4 min 40 sec) 
 Total Blocks : 262144 Invalid Blocks : 0
Heartbeat CPU 2 instructions: 230000000 cycles: 204767583 heartbeat IPC: 0.528056 cumulative IPC: 0.533686 (Simulation time: 32 hr 24 min 31 sec) 
 Total Blocks : 262144 Invalid Blocks : 0
Heartbeat CPU 3 instructions: 230000000 cycles: 204775241 heartbeat IPC: 0.527774 cumulative IPC: 0.533614 (Simulation time: 32 hr 24 min 35 sec) 
 Total Blocks : 262144 Invalid Blocks : 0
Heartbeat CPU 4 instructions: 230000000 cycles: 204782999 heartbeat IPC: 0.527833 cumulative IPC: 0.533541 (Simulation time: 32 hr 24 min 38 sec) 
 Total Blocks : 262144 Invalid Blocks : 0
Heartbeat CPU 6 instructions: 230000000 cycles: 204793879 heartbeat IPC: 0.527776 cumulative IPC: 0.533438 (Simulation time: 32 hr 24 min 43 sec) 
 Total Blocks : 262144 Invalid Blocks : 0
Heartbeat CPU 1 instructions: 230000000 cycles: 204901721 heartbeat IPC: 0.524729 cumulative IPC: 0.532414 (Simulation time: 32 hr 25 min 29 sec) 
 Total Blocks : 262144 Invalid Blocks : 0
Heartbeat CPU 5 instructions: 230000000 cycles: 205174522 heartbeat IPC: 0.521199 cumulative IPC: 0.529851 (Simulation time: 32 hr 27 min 34 sec) 
 Total Blocks : 262144 Invalid Blocks : 0
Heartbeat CPU 0 instructions: 230000000 cycles: 205300954 heartbeat IPC: 0.520703 cumulative IPC: 0.528668 (Simulation time: 32 hr 28 min 31 sec) 
 Total Blocks : 262144 Invalid Blocks : 0
Heartbeat CPU 7 instructions: 230000000 cycles: 205489500 heartbeat IPC: 0.520394 cumulative IPC: 0.526921 (Simulation time: 32 hr 29 min 55 sec) 
 Total Blocks : 262144 Invalid Blocks : 0
Heartbeat CPU 2 instructions: 240000002 cycles: 223813649 heartbeat IPC: 0.525043 cumulative IPC: 0.531499 (Simulation time: 34 hr 53 min 41 sec) 
 Total Blocks : 262144 Invalid Blocks : 0
Heartbeat CPU 3 instructions: 240000002 cycles: 223815221 heartbeat IPC: 0.525211 cumulative IPC: 0.531488 (Simulation time: 34 hr 53 min 41 sec) 
 Total Blocks : 262144 Invalid Blocks : 0
Heartbeat CPU 6 instructions: 240000002 cycles: 223823507 heartbeat IPC: 0.525496 cumulative IPC: 0.53143 (Simulation time: 34 hr 53 min 46 sec) 
 Total Blocks : 262144 Invalid Blocks : 0
Heartbeat CPU 4 instructions: 240000002 cycles: 223838224 heartbeat IPC: 0.524791 cumulative IPC: 0.531326 (Simulation time: 34 hr 53 min 54 sec) 
 Total Blocks : 262144 Invalid Blocks : 0
Heartbeat CPU 1 instructions: 240000003 cycles: 224164253 heartbeat IPC: 0.519143 cumulative IPC: 0.529033 (Simulation time: 34 hr 56 min 40 sec) 
 Total Blocks : 262144 Invalid Blocks : 0
Heartbeat CPU 5 instructions: 240000001 cycles: 224382276 heartbeat IPC: 0.520623 cumulative IPC: 0.527514 (Simulation time: 34 hr 58 min 29 sec) 
 Total Blocks : 262144 Invalid Blocks : 0
Heartbeat CPU 0 instructions: 240000002 cycles: 224519393 heartbeat IPC: 0.520334 cumulative IPC: 0.52656 (Simulation time: 34 hr 59 min 44 sec) 
 Total Blocks : 262144 Invalid Blocks : 0
Heartbeat CPU 7 instructions: 240000003 cycles: 224707157 heartbeat IPC: 0.520355 cumulative IPC: 0.525264 (Simulation time: 35 hr 1 min 24 sec) 
 Total Blocks : 262144 Invalid Blocks : 0
Heartbeat CPU 2 instructions: 250000002 cycles: 242944537 heartbeat IPC: 0.522715 cumulative IPC: 0.529718 (Simulation time: 37 hr 39 min 23 sec) 
 Total Blocks : 262144 Invalid Blocks : 0
Heartbeat CPU 6 instructions: 250000003 cycles: 242947090 heartbeat IPC: 0.522915 cumulative IPC: 0.529705 (Simulation time: 37 hr 39 min 25 sec) 
 Total Blocks : 262144 Invalid Blocks : 0
Heartbeat CPU 3 instructions: 250000002 cycles: 242948304 heartbeat IPC: 0.522655 cumulative IPC: 0.529698 (Simulation time: 37 hr 39 min 26 sec) 
 Total Blocks : 262144 Invalid Blocks : 0
Heartbeat CPU 4 instructions: 250000003 cycles: 243096864 heartbeat IPC: 0.519248 cumulative IPC: 0.528865 (Simulation time: 37 hr 40 min 41 sec) 
 Total Blocks : 262144 Invalid Blocks : 0
Heartbeat CPU 1 instructions: 250000003 cycles: 243392893 heartbeat IPC: 0.520058 cumulative IPC: 0.527213 (Simulation time: 37 hr 43 min 20 sec) 
 Total Blocks : 262144 Invalid Blocks : 0
Heartbeat CPU 5 instructions: 250000003 cycles: 243649223 heartbeat IPC: 0.519024 cumulative IPC: 0.525793 (Simulation time: 37 hr 45 min 29 sec) 
 Total Blocks : 262144 Invalid Blocks : 0
Heartbeat CPU 0 instructions: 250000003 cycles: 243805842 heartbeat IPC: 0.518499 cumulative IPC: 0.524927 (Simulation time: 37 hr 46 min 54 sec) 
 Total Blocks : 262144 Invalid Blocks : 0
Heartbeat CPU 7 instructions: 250000002 cycles: 243993515 heartbeat IPC: 0.518501 cumulative IPC: 0.523897 (Simulation time: 37 hr 48 min 32 sec) 
 Total Blocks : 262144 Invalid Blocks : 0
Heartbeat CPU 3 instructions: 260000001 cycles: 262111324 heartbeat IPC: 0.521838 cumulative IPC: 0.528371 (Simulation time: 40 hr 23 min 8 sec) 
 Total Blocks : 262144 Invalid Blocks : 0
Heartbeat CPU 6 instructions: 260000003 cycles: 262120758 heartbeat IPC: 0.521549 cumulative IPC: 0.528328 (Simulation time: 40 hr 23 min 12 sec) 
 Total Blocks : 262144 Invalid Blocks : 0
Heartbeat CPU 2 instructions: 260000002 cycles: 262152490 heartbeat IPC: 0.520618 cumulative IPC: 0.52818 (Simulation time: 40 hr 23 min 30 sec) 
 Total Blocks : 262144 Invalid Blocks : 0
Heartbeat CPU 4 instructions: 260000001 cycles: 262376748 heartbeat IPC: 0.518675 cumulative IPC: 0.527139 (Simulation time: 40 hr 25 min 24 sec) 
 Total Blocks : 262144 Invalid Blocks : 0
Heartbeat CPU 1 instructions: 260000003 cycles: 262681004 heartbeat IPC: 0.518454 cumulative IPC: 0.525733 (Simulation time: 40 hr 28 min 1 sec) 
 Total Blocks : 262144 Invalid Blocks : 0
Heartbeat CPU 5 instructions: 260000001 cycles: 262938618 heartbeat IPC: 0.518419 cumulative IPC: 0.52455 (Simulation time: 40 hr 30 min 14 sec) 
 Total Blocks : 262144 Invalid Blocks : 0
Heartbeat CPU 0 instructions: 260000001 cycles: 263074040 heartbeat IPC: 0.51899 cumulative IPC: 0.523928 (Simulation time: 40 hr 31 min 23 sec) 
 Total Blocks : 262144 Invalid Blocks : 0
Heartbeat CPU 7 instructions: 260000003 cycles: 263278472 heartbeat IPC: 0.518539 cumulative IPC: 0.522997 (Simulation time: 40 hr 33 min 7 sec) 
 Total Blocks : 262144 Invalid Blocks : 0
Heartbeat CPU 6 instructions: 270000002 cycles: 281317103 heartbeat IPC: 0.520932 cumulative IPC: 0.527259 (Simulation time: 43 hr 6 min 12 sec) 
 Total Blocks : 262144 Invalid Blocks : 0
Heartbeat CPU 3 instructions: 270000002 cycles: 281336114 heartbeat IPC: 0.520162 cumulative IPC: 0.527183 (Simulation time: 43 hr 6 min 22 sec) 
 Total Blocks : 262144 Invalid Blocks : 0
Heartbeat CPU 2 instructions: 270000003 cycles: 281413799 heartbeat IPC: 0.519176 cumulative IPC: 0.526874 (Simulation time: 43 hr 7 min 4 sec) 
 Total Blocks : 262144 Invalid Blocks : 0
Heartbeat CPU 4 instructions: 270000002 cycles: 281664684 heartbeat IPC: 0.518459 cumulative IPC: 0.525881 (Simulation time: 43 hr 9 min 17 sec) 
 Total Blocks : 262144 Invalid Blocks : 0
Heartbeat CPU 1 instructions: 270000001 cycles: 281967139 heartbeat IPC: 0.518507 cumulative IPC: 0.524688 (Simulation time: 43 hr 12 min 0 sec) 
 Total Blocks : 262144 Invalid Blocks : 0
Heartbeat CPU 5 instructions: 270000001 cycles: 282245329 heartbeat IPC: 0.517955 cumulative IPC: 0.523598 (Simulation time: 43 hr 14 min 28 sec) 
 Total Blocks : 262144 Invalid Blocks : 0
Heartbeat CPU 0 instructions: 270000003 cycles: 282348365 heartbeat IPC: 0.518825 cumulative IPC: 0.523193 (Simulation time: 43 hr 15 min 21 sec) 
 Total Blocks : 262144 Invalid Blocks : 0
Heartbeat CPU 7 instructions: 270000003 cycles: 282567415 heartbeat IPC: 0.518432 cumulative IPC: 0.52234 (Simulation time: 43 hr 17 min 14 sec) 
 Total Blocks : 262144 Invalid Blocks : 0
Heartbeat CPU 6 instructions: 280000000 cycles: 300529276 heartbeat IPC: 0.520503 cumulative IPC: 0.526405 (Simulation time: 45 hr 53 min 52 sec) 
 Total Blocks : 262144 Invalid Blocks : 0
Heartbeat CPU 3 instructions: 280000000 cycles: 300568190 heartbeat IPC: 0.519965 cumulative IPC: 0.526269 (Simulation time: 45 hr 54 min 12 sec) 
 Total Blocks : 262144 Invalid Blocks : 0
Heartbeat CPU 2 instructions: 280000003 cycles: 300684676 heartbeat IPC: 0.518918 cumulative IPC: 0.525866 (Simulation time: 45 hr 55 min 12 sec) 
 Total Blocks : 262144 Invalid Blocks : 0
Heartbeat CPU 4 instructions: 280000000 cycles: 300927384 heartbeat IPC: 0.519138 cumulative IPC: 0.525029 (Simulation time: 45 hr 57 min 18 sec) 
 Total Blocks : 262144 Invalid Blocks : 0
Heartbeat CPU 1 instructions: 280000003 cycles: 301242152 heartbeat IPC: 0.518807 cumulative IPC: 0.523946 (Simulation time: 46 hr 0 min 8 sec) 
 Total Blocks : 262144 Invalid Blocks : 0
Heartbeat CPU 5 instructions: 280000000 cycles: 301514744 heartbeat IPC: 0.518957 cumulative IPC: 0.523013 (Simulation time: 46 hr 2 min 38 sec) 
 Total Blocks : 262144 Invalid Blocks : 0
Heartbeat CPU 0 instructions: 280000000 cycles: 301591023 heartbeat IPC: 0.519679 cumulative IPC: 0.522751 (Simulation time: 46 hr 3 min 20 sec) 
 Total Blocks : 262144 Invalid Blocks : 0
Heartbeat CPU 7 instructions: 280000000 cycles: 301843395 heartbeat IPC: 0.51878 cumulative IPC: 0.521892 (Simulation time: 46 hr 5 min 40 sec) 
 Total Blocks : 262144 Invalid Blocks : 0
Heartbeat CPU 6 instructions: 290000003 cycles: 319833994 heartbeat IPC: 0.518008 cumulative IPC: 0.525458 (Simulation time: 48 hr 45 min 59 sec) 
 Total Blocks : 262144 Invalid Blocks : 0
Heartbeat CPU 3 instructions: 290000000 cycles: 319863277 heartbeat IPC: 0.518267 cumulative IPC: 0.525368 (Simulation time: 48 hr 46 min 15 sec) 
 Total Blocks : 262144 Invalid Blocks : 0
Heartbeat CPU 2 instructions: 290000000 cycles: 319989729 heartbeat IPC: 0.517999 cumulative IPC: 0.52498 (Simulation time: 48 hr 47 min 23 sec) 
 Total Blocks : 262144 Invalid Blocks : 0
Heartbeat CPU 4 instructions: 290000000 cycles: 320257667 heartbeat IPC: 0.517323 cumulative IPC: 0.524161 (Simulation time: 48 hr 49 min 50 sec) 
 Total Blocks : 262144 Invalid Blocks : 0
Heartbeat CPU 1 instructions: 290000001 cycles: 320563077 heartbeat IPC: 0.517573 cumulative IPC: 0.52323 (Simulation time: 48 hr 52 min 38 sec) 
 Total Blocks : 262144 Invalid Blocks : 0
Heartbeat CPU 5 instructions: 290000001 cycles: 320851437 heartbeat IPC: 0.517152 cumulative IPC: 0.522355 (Simulation time: 48 hr 55 min 15 sec) 
 Total Blocks : 262144 Invalid Blocks : 0
Heartbeat CPU 0 instructions: 290000000 cycles: 320905022 heartbeat IPC: 0.517759 cumulative IPC: 0.522192 (Simulation time: 48 hr 55 min 44 sec) 
 Total Blocks : 262144 Invalid Blocks : 0
Heartbeat CPU 7 instructions: 290000001 cycles: 321161083 heartbeat IPC: 0.51766 cumulative IPC: 0.521418 (Simulation time: 48 hr 58 min 6 sec) 
 Total Blocks : 262144 Invalid Blocks : 0
Heartbeat CPU 3 instructions: 300000002 cycles: 339068744 heartbeat IPC: 0.520685 cumulative IPC: 0.524896 (Simulation time: 51 hr 40 min 37 sec) 
 Total Blocks : 262144 Invalid Blocks : 0
Heartbeat CPU 6 instructions: 300000003 cycles: 339071950 heartbeat IPC: 0.519806 cumulative IPC: 0.524887 (Simulation time: 51 hr 40 min 39 sec) 
 Total Blocks : 262144 Invalid Blocks : 0
Heartbeat CPU 2 instructions: 300000003 cycles: 339257323 heartbeat IPC: 0.519006 cumulative IPC: 0.524377 (Simulation time: 51 hr 42 min 27 sec) 
 Total Blocks : 262144 Invalid Blocks : 0
Heartbeat CPU 4 instructions: 300000003 cycles: 339537509 heartbeat IPC: 0.518677 cumulative IPC: 0.523608 (Simulation time: 51 hr 45 min 10 sec) 
 Total Blocks : 262144 Invalid Blocks : 0
Heartbeat CPU 1 instructions: 300000003 cycles: 339844373 heartbeat IPC: 0.518637 cumulative IPC: 0.522767 (Simulation time: 51 hr 48 min 6 sec) 
 Total Blocks : 262144 Invalid Blocks : 0
Heartbeat CPU 5 instructions: 300000003 cycles: 340113252 heartbeat IPC: 0.519162 cumulative IPC: 0.522034 (Simulation time: 51 hr 50 min 43 sec) 
 Total Blocks : 262144 Invalid Blocks : 0
Heartbeat CPU 0 instructions: 300000002 cycles: 340151472 heartbeat IPC: 0.519576 cumulative IPC: 0.521929 (Simulation time: 51 hr 51 min 5 sec) 
 Total Blocks : 262144 Invalid Blocks : 0
Heartbeat CPU 7 instructions: 300000003 cycles: 340425119 heartbeat IPC: 0.519102 cumulative IPC: 0.521186 (Simulation time: 51 hr 53 min 43 sec) 
 Total Blocks : 262144 Invalid Blocks : 0
Heartbeat CPU 3 instructions: 310000001 cycles: 358275582 heartbeat IPC: 0.520648 cumulative IPC: 0.524507 (Simulation time: 54 hr 41 min 50 sec) 
 Total Blocks : 262144 Invalid Blocks : 0
Heartbeat CPU 6 instructions: 310000001 cycles: 358296185 heartbeat IPC: 0.520177 cumulative IPC: 0.524456 (Simulation time: 54 hr 42 min 1 sec) 
 Total Blocks : 262144 Invalid Blocks : 0
Heartbeat CPU 2 instructions: 310000001 cycles: 358529451 heartbeat IPC: 0.518884 cumulative IPC: 0.523873 (Simulation time: 54 hr 44 min 17 sec) 
 Total Blocks : 262144 Invalid Blocks : 0
Heartbeat CPU 4 instructions: 310000001 cycles: 358835339 heartbeat IPC: 0.518193 cumulative IPC: 0.523111 (Simulation time: 54 hr 46 min 53 sec) 
 Total Blocks : 262144 Invalid Blocks : 0
Heartbeat CPU 1 instructions: 310000003 cycles: 359143150 heartbeat IPC: 0.518168 cumulative IPC: 0.522346 (Simulation time: 54 hr 49 min 40 sec) 
 Total Blocks : 262144 Invalid Blocks : 0
Heartbeat CPU 5 instructions: 310000001 cycles: 359362289 heartbeat IPC: 0.519506 cumulative IPC: 0.521803 (Simulation time: 54 hr 51 min 34 sec) 
 Total Blocks : 262144 Invalid Blocks : 0
Heartbeat CPU 0 instructions: 310000001 cycles: 359382105 heartbeat IPC: 0.520004 cumulative IPC: 0.521753 (Simulation time: 54 hr 51 min 44 sec) 
 Total Blocks : 262144 Invalid Blocks : 0
Heartbeat CPU 7 instructions: 310000001 cycles: 359699311 heartbeat IPC: 0.518828 cumulative IPC: 0.520971 (Simulation time: 54 hr 54 min 35 sec) 
 Total Blocks : 262144 Invalid Blocks : 0
Heartbeat CPU 3 instructions: 320000001 cycles: 377559339 heartbeat IPC: 0.518571 cumulative IPC: 0.524007 (Simulation time: 57 hr 42 min 39 sec) 
 Total Blocks : 262144 Invalid Blocks : 0
Heartbeat CPU 6 instructions: 320000001 cycles: 377566069 heartbeat IPC: 0.518945 cumulative IPC: 0.523992 (Simulation time: 57 hr 42 min 43 sec) 
 Total Blocks : 262144 Invalid Blocks : 0
Heartbeat CPU 2 instructions: 320000001 cycles: 377862849 heartbeat IPC: 0.51724 cumulative IPC: 0.523313 (Simulation time: 57 hr 45 min 5 sec) 
 Total Blocks : 262144 Invalid Blocks : 0
Heartbeat CPU 4 instructions: 320000001 cycles: 378177823 heartbeat IPC: 0.516997 cumulative IPC: 0.522596 (Simulation time: 57 hr 47 min 34 sec) 
 Total Blocks : 262144 Invalid Blocks : 0
Heartbeat CPU 1 instructions: 320000001 cycles: 378478542 heartbeat IPC: 0.517186 cumulative IPC: 0.521912 (Simulation time: 57 hr 50 min 7 sec) 
 Total Blocks : 262144 Invalid Blocks : 0
Heartbeat CPU 0 instructions: 320000001 cycles: 378662256 heartbeat IPC: 0.518668 cumulative IPC: 0.521495 (Simulation time: 57 hr 51 min 54 sec) 
 Total Blocks : 262144 Invalid Blocks : 0
Heartbeat CPU 5 instructions: 320000001 cycles: 378683165 heartbeat IPC: 0.517575 cumulative IPC: 0.521448 (Simulation time: 57 hr 52 min 6 sec) 
 Total Blocks : 262144 Invalid Blocks : 0
Heartbeat CPU 7 instructions: 320000001 cycles: 379051971 heartbeat IPC: 0.516725 cumulative IPC: 0.520614 (Simulation time: 57 hr 55 min 41 sec) 
 Total Blocks : 262144 Invalid Blocks : 0
Heartbeat CPU 3 instructions: 330000000 cycles: 396769294 heartbeat IPC: 0.520563 cumulative IPC: 0.523741 (Simulation time: 60 hr 49 min 11 sec) 
 Total Blocks : 262144 Invalid Blocks : 0
Heartbeat CPU 6 instructions: 330000000 cycles: 396783246 heartbeat IPC: 0.520368 cumulative IPC: 0.523711 (Simulation time: 60 hr 49 min 19 sec) 
 Total Blocks : 262144 Invalid Blocks : 0
Heartbeat CPU 2 instructions: 330000000 cycles: 397124820 heartbeat IPC: 0.519158 cumulative IPC: 0.522991 (Simulation time: 60 hr 52 min 43 sec) 
 Total Blocks : 262144 Invalid Blocks : 0
Heartbeat CPU 4 instructions: 330000000 cycles: 397437994 heartbeat IPC: 0.519206 cumulative IPC: 0.522333 (Simulation time: 60 hr 55 min 48 sec) 
 Total Blocks : 262144 Invalid Blocks : 0
Heartbeat CPU 1 instructions: 330000000 cycles: 397736909 heartbeat IPC: 0.519255 cumulative IPC: 0.521706 (Simulation time: 60 hr 58 min 49 sec) 
 Total Blocks : 262144 Invalid Blocks : 0
Heartbeat CPU 0 instructions: 330000000 cycles: 397879912 heartbeat IPC: 0.520355 cumulative IPC: 0.521407 (Simulation time: 61 hr 0 min 14 sec) 
 Total Blocks : 262144 Invalid Blocks : 0
Heartbeat CPU 5 instructions: 330000000 cycles: 397936657 heartbeat IPC: 0.519386 cumulative IPC: 0.521289 (Simulation time: 61 hr 0 min 48 sec) 
 Total Blocks : 262144 Invalid Blocks : 0
Heartbeat CPU 7 instructions: 330000000 cycles: 398305539 heartbeat IPC: 0.519384 cumulative IPC: 0.520519 (Simulation time: 61 hr 4 min 27 sec) 
 Total Blocks : 262144 Invalid Blocks : 0
Heartbeat CPU 3 instructions: 340000001 cycles: 416053653 heartbeat IPC: 0.518555 cumulative IPC: 0.523367 (Simulation time: 64 hr 6 min 25 sec) 
 Total Blocks : 262144 Invalid Blocks : 0
Heartbeat CPU 6 instructions: 340000000 cycles: 416083625 heartbeat IPC: 0.518125 cumulative IPC: 0.523308 (Simulation time: 64 hr 6 min 44 sec) 
 Total Blocks : 262144 Invalid Blocks : 0
Heartbeat CPU 2 instructions: 340000001 cycles: 416423920 heartbeat IPC: 0.518159 cumulative IPC: 0.522643 (Simulation time: 64 hr 10 min 16 sec) 
 Total Blocks : 262144 Invalid Blocks : 0
Heartbeat CPU 4 instructions: 340000001 cycles: 416729281 heartbeat IPC: 0.518369 cumulative IPC: 0.522048 (Simulation time: 64 hr 13 min 29 sec) 
 Total Blocks : 262144 Invalid Blocks : 0
Heartbeat CPU 1 instructions: 340000001 cycles: 417009970 heartbeat IPC: 0.518859 cumulative IPC: 0.521502 (Simulation time: 64 hr 16 min 24 sec) 
 Total Blocks : 262144 Invalid Blocks : 0
Heartbeat CPU 0 instructions: 340000000 cycles: 417210307 heartbeat IPC: 0.51732 cumulative IPC: 0.521113 (Simulation time: 64 hr 18 min 29 sec) 
 Total Blocks : 262144 Invalid Blocks : 0
Heartbeat CPU 5 instructions: 340000000 cycles: 417224509 heartbeat IPC: 0.518461 cumulative IPC: 0.521086 (Simulation time: 64 hr 18 min 37 sec) 
 Total Blocks : 262144 Invalid Blocks : 0
Heartbeat CPU 7 instructions: 340000000 cycles: 417599764 heartbeat IPC: 0.51829 cumulative IPC: 0.520359 (Simulation time: 64 hr 22 min 34 sec) 
 Total Blocks : 262144 Invalid Blocks : 0
Heartbeat CPU 3 instructions: 350000003 cycles: 435221506 heartbeat IPC: 0.521707 cumulative IPC: 0.523256 (Simulation time: 67 hr 29 min 43 sec) 
 Total Blocks : 262144 Invalid Blocks : 0
Heartbeat CPU 6 instructions: 350000003 cycles: 435256717 heartbeat IPC: 0.521564 cumulative IPC: 0.523192 (Simulation time: 67 hr 30 min 11 sec) 
 Total Blocks : 262144 Invalid Blocks : 0
Heartbeat CPU 2 instructions: 350000003 cycles: 435733257 heartbeat IPC: 0.517884 cumulative IPC: 0.522323 (Simulation time: 67 hr 36 min 36 sec) 
 Total Blocks : 262144 Invalid Blocks : 0
Heartbeat CPU 4 instructions: 350000003 cycles: 436196660 heartbeat IPC: 0.51368 cumulative IPC: 0.521482 (Simulation time: 67 hr 42 min 36 sec) 
 Total Blocks : 262144 Invalid Blocks : 0
Heartbeat CPU 1 instructions: 350000003 cycles: 436663225 heartbeat IPC: 0.508822 cumulative IPC: 0.520637 (Simulation time: 67 hr 48 min 16 sec) 
 Total Blocks : 262144 Invalid Blocks : 0
Heartbeat CPU 5 instructions: 350000003 cycles: 436961941 heartbeat IPC: 0.506652 cumulative IPC: 0.520098 (Simulation time: 67 hr 51 min 41 sec) 
 Total Blocks : 262144 Invalid Blocks : 0
Heartbeat CPU 0 instructions: 350000003 cycles: 437001171 heartbeat IPC: 0.505284 cumulative IPC: 0.520027 (Simulation time: 67 hr 52 min 7 sec) 
 Total Blocks : 262144 Invalid Blocks : 0
Heartbeat CPU 7 instructions: 350000003 cycles: 437708395 heartbeat IPC: 0.497299 cumulative IPC: 0.518756 (Simulation time: 67 hr 59 min 50 sec) 
 Total Blocks : 262144 Invalid Blocks : 0
Heartbeat CPU 3 instructions: 360000000 cycles: 468347535 heartbeat IPC: 0.301877 cumulative IPC: 0.500324 (Simulation time: 72 hr 37 min 11 sec) 
 Total Blocks : 262144 Invalid Blocks : 0
Heartbeat CPU 6 instructions: 360000003 cycles: 468558833 heartbeat IPC: 0.300281 cumulative IPC: 0.499994 (Simulation time: 72 hr 39 min 4 sec) 
 Total Blocks : 262144 Invalid Blocks : 0
Heartbeat CPU 2 instructions: 360000000 cycles: 469414298 heartbeat IPC: 0.296903 cumulative IPC: 0.498661 (Simulation time: 72 hr 46 min 44 sec) 
 Total Blocks : 262144 Invalid Blocks : 0
Heartbeat CPU 4 instructions: 360000003 cycles: 470124479 heartbeat IPC: 0.294743 cumulative IPC: 0.497559 (Simulation time: 72 hr 53 min 8 sec) 
 Total Blocks : 262144 Invalid Blocks : 0
Heartbeat CPU 1 instructions: 360000000 cycles: 470765725 heartbeat IPC: 0.293234 cumulative IPC: 0.496569 (Simulation time: 72 hr 58 min 52 sec) 
 Total Blocks : 262144 Invalid Blocks : 0
Heartbeat CPU 5 instructions: 360000000 cycles: 470981704 heartbeat IPC: 0.293947 cumulative IPC: 0.496237 (Simulation time: 73 hr 0 min 45 sec) 
 Total Blocks : 262144 Invalid Blocks : 0
Heartbeat CPU 0 instructions: 360000003 cycles: 471077218 heartbeat IPC: 0.293461 cumulative IPC: 0.496089 (Simulation time: 73 hr 1 min 40 sec) 
 Total Blocks : 262144 Invalid Blocks : 0
Heartbeat CPU 7 instructions: 360000000 cycles: 472241540 heartbeat IPC: 0.289577 cumulative IPC: 0.494305 (Simulation time: 73 hr 12 min 6 sec) 
 Total Blocks : 262144 Invalid Blocks : 0
Heartbeat CPU 3 instructions: 370000001 cycles: 503095254 heartbeat IPC: 0.287789 cumulative IPC: 0.479494 (Simulation time: 77 hr 56 min 41 sec) 
 Total Blocks : 262144 Invalid Blocks : 0
Heartbeat CPU 6 instructions: 370000000 cycles: 503232494 heartbeat IPC: 0.288403 cumulative IPC: 0.479309 (Simulation time: 77 hr 58 min 1 sec) 
 Total Blocks : 262144 Invalid Blocks : 0
Heartbeat CPU 2 instructions: 370000000 cycles: 504380885 heartbeat IPC: 0.285987 cumulative IPC: 0.477761 (Simulation time: 78 hr 8 min 49 sec) 
 Total Blocks : 262144 Invalid Blocks : 0
Heartbeat CPU 4 instructions: 370000000 cycles: 505202746 heartbeat IPC: 0.285077 cumulative IPC: 0.476661 (Simulation time: 78 hr 16 min 31 sec) 
 Total Blocks : 262144 Invalid Blocks : 0
Heartbeat CPU 1 instructions: 370000001 cycles: 505641544 heartbeat IPC: 0.286732 cumulative IPC: 0.476075 (Simulation time: 78 hr 20 min 36 sec) 
 Total Blocks : 262144 Invalid Blocks : 0
Heartbeat CPU 5 instructions: 370000000 cycles: 505727578 heartbeat IPC: 0.287804 cumulative IPC: 0.47596 (Simulation time: 78 hr 21 min 23 sec) 
 Total Blocks : 262144 Invalid Blocks : 0
Heartbeat CPU 0 instructions: 370000000 cycles: 506099584 heartbeat IPC: 0.285532 cumulative IPC: 0.475465 (Simulation time: 78 hr 24 min 54 sec) 
 Total Blocks : 262144 Invalid Blocks : 0
Heartbeat CPU 7 instructions: 370000001 cycles: 507259398 heartbeat IPC: 0.285569 cumulative IPC: 0.473928 (Simulation time: 78 hr 35 min 51 sec) 
 Total Blocks : 262144 Invalid Blocks : 0
Heartbeat CPU 6 instructions: 380000000 cycles: 537964764 heartbeat IPC: 0.287917 cumulative IPC: 0.462238 (Simulation time: 83 hr 28 min 0 sec) 
 Total Blocks : 262144 Invalid Blocks : 0
Heartbeat CPU 3 instructions: 380000000 cycles: 538011518 heartbeat IPC: 0.286399 cumulative IPC: 0.462182 (Simulation time: 83 hr 28 min 27 sec) 
 Total Blocks : 262144 Invalid Blocks : 0
Heartbeat CPU 2 instructions: 380000000 cycles: 539432592 heartbeat IPC: 0.285293 cumulative IPC: 0.460502 (Simulation time: 83 hr 42 min 2 sec) 
 Total Blocks : 262144 Invalid Blocks : 0
Heartbeat CPU 4 instructions: 380000000 cycles: 540196778 heartbeat IPC: 0.285763 cumulative IPC: 0.459603 (Simulation time: 83 hr 49 min 30 sec) 
 Total Blocks : 262144 Invalid Blocks : 0
Heartbeat CPU 1 instructions: 380000000 cycles: 540328658 heartbeat IPC: 0.288291 cumulative IPC: 0.459448 (Simulation time: 83 hr 50 min 46 sec) 
 Total Blocks : 262144 Invalid Blocks : 0
Heartbeat CPU 5 instructions: 380000000 cycles: 540360773 heartbeat IPC: 0.28874 cumulative IPC: 0.459411 (Simulation time: 83 hr 51 min 6 sec) 
 Total Blocks : 262144 Invalid Blocks : 0
Heartbeat CPU 0 instructions: 380000000 cycles: 541130611 heartbeat IPC: 0.285461 cumulative IPC: 0.45851 (Simulation time: 83 hr 58 min 43 sec) 
 Total Blocks : 262144 Invalid Blocks : 0
Heartbeat CPU 7 instructions: 380000000 cycles: 542276795 heartbeat IPC: 0.285572 cumulative IPC: 0.457176 (Simulation time: 84 hr 9 min 51 sec) 
 Total Blocks : 262144 Invalid Blocks : 0
Heartbeat CPU 6 instructions: 390000002 cycles: 572867894 heartbeat IPC: 0.286507 cumulative IPC: 0.447783 (Simulation time: 89 hr 11 min 3 sec) 
 Total Blocks : 262144 Invalid Blocks : 0
Heartbeat CPU 3 instructions: 390000002 cycles: 572876591 heartbeat IPC: 0.28682 cumulative IPC: 0.447773 (Simulation time: 89 hr 11 min 9 sec) 
 Total Blocks : 262144 Invalid Blocks : 0
Heartbeat CPU 2 instructions: 390000002 cycles: 574455189 heartbeat IPC: 0.28553 cumulative IPC: 0.446114 (Simulation time: 89 hr 26 min 56 sec) 
 Total Blocks : 262144 Invalid Blocks : 0
Heartbeat CPU 1 instructions: 390000000 cycles: 574876415 heartbeat IPC: 0.289454 cumulative IPC: 0.445673 (Simulation time: 89 hr 31 min 12 sec) 
 Total Blocks : 262144 Invalid Blocks : 0
Heartbeat CPU 4 instructions: 390000001 cycles: 574936631 heartbeat IPC: 0.287854 cumulative IPC: 0.44561 (Simulation time: 89 hr 31 min 51 sec) 
 Total Blocks : 262144 Invalid Blocks : 0
Heartbeat CPU 5 instructions: 390000002 cycles: 574997138 heartbeat IPC: 0.288714 cumulative IPC: 0.445547 (Simulation time: 89 hr 32 min 28 sec) 
 Total Blocks : 262144 Invalid Blocks : 0
Heartbeat CPU 0 instructions: 390000002 cycles: 576205946 heartbeat IPC: 0.285101 cumulative IPC: 0.444287 (Simulation time: 89 hr 44 min 44 sec) 
 Total Blocks : 262144 Invalid Blocks : 0
Heartbeat CPU 7 instructions: 390000001 cycles: 577469624 heartbeat IPC: 0.284149 cumulative IPC: 0.442979 (Simulation time: 89 hr 57 min 26 sec) 
 Total Blocks : 262144 Invalid Blocks : 0
Heartbeat CPU 3 instructions: 400000001 cycles: 607533260 heartbeat IPC: 0.288545 cumulative IPC: 0.43575 (Simulation time: 94 hr 5 min 45 sec) 
 Total Blocks : 262144 Invalid Blocks : 0
Finished CPU 3 instructions: 200000000 cycles: 458978358 cumulative IPC: 0.43575 (Simulation time: 94 hr 5 min 45 sec) 
Heartbeat CPU 6 instructions: 400000001 cycles: 607588935 heartbeat IPC: 0.28801 cumulative IPC: 0.435698 (Simulation time: 94 hr 6 min 15 sec) 
 Total Blocks : 262144 Invalid Blocks : 0
Finished CPU 6 instructions: 200000002 cycles: 459033970 cumulative IPC: 0.435698 (Simulation time: 94 hr 6 min 15 sec) 
Heartbeat CPU 1 instructions: 400000001 cycles: 609389582 heartbeat IPC: 0.289745 cumulative IPC: 0.433995 (Simulation time: 94 hr 21 min 13 sec) 
 Total Blocks : 262144 Invalid Blocks : 0
Finished CPU 1 instructions: 200000002 cycles: 460834822 cumulative IPC: 0.433995 (Simulation time: 94 hr 21 min 13 sec) 
Heartbeat CPU 2 instructions: 400000002 cycles: 609401598 heartbeat IPC: 0.286152 cumulative IPC: 0.433984 (Simulation time: 94 hr 21 min 20 sec) 
 Total Blocks : 262144 Invalid Blocks : 0
Finished CPU 2 instructions: 200000002 cycles: 460846705 cumulative IPC: 0.433984 (Simulation time: 94 hr 21 min 20 sec) 
Heartbeat CPU 4 instructions: 400000002 cycles: 609780243 heartbeat IPC: 0.286997 cumulative IPC: 0.433627 (Simulation time: 94 hr 24 min 27 sec) 
 Total Blocks : 262144 Invalid Blocks : 0
Finished CPU 4 instructions: 200000000 cycles: 461225529 cumulative IPC: 0.433627 (Simulation time: 94 hr 24 min 27 sec) 
Heartbeat CPU 5 instructions: 400000001 cycles: 609920395 heartbeat IPC: 0.286342 cumulative IPC: 0.433496 (Simulation time: 94 hr 25 min 35 sec) 
 Total Blocks : 262144 Invalid Blocks : 0
Finished CPU 5 instructions: 200000001 cycles: 461365437 cumulative IPC: 0.433496 (Simulation time: 94 hr 25 min 35 sec) 
Heartbeat CPU 0 instructions: 400000001 cycles: 611343846 heartbeat IPC: 0.284593 cumulative IPC: 0.432162 (Simulation time: 94 hr 37 min 23 sec) 
 Total Blocks : 262144 Invalid Blocks : 0
Finished CPU 0 instructions: 200000000 cycles: 462789472 cumulative IPC: 0.432162 (Simulation time: 94 hr 37 min 23 sec) 
Heartbeat CPU 7 instructions: 400000001 cycles: 612609655 heartbeat IPC: 0.284576 cumulative IPC: 0.430984 (Simulation time: 94 hr 47 min 56 sec) 
 Total Blocks : 262144 Invalid Blocks : 0
Finished CPU 7 instructions: 200000002 cycles: 464054682 cumulative IPC: 0.430984 (Simulation time: 94 hr 47 min 56 sec) 

CPU 0 Branch Prediction Accuracy: 85.1903% MPKI: 20.501 Average ROB Occupancy at Mispredict: 84.4751

CPU 1 Branch Prediction Accuracy: 85.1863% MPKI: 20.4895 Average ROB Occupancy at Mispredict: 84.5219

CPU 2 Branch Prediction Accuracy: 85.1864% MPKI: 20.4895 Average ROB Occupancy at Mispredict: 84.5696

CPU 3 Branch Prediction Accuracy: 85.1827% MPKI: 20.479 Average ROB Occupancy at Mispredict: 84.6289

CPU 4 Branch Prediction Accuracy: 85.1872% MPKI: 20.492 Average ROB Occupancy at Mispredict: 84.5419

CPU 5 Branch Prediction Accuracy: 85.1874% MPKI: 20.4926 Average ROB Occupancy at Mispredict: 84.5384

CPU 6 Branch Prediction Accuracy: 85.1829% MPKI: 20.4795 Average ROB Occupancy at Mispredict: 84.6615

CPU 7 Branch Prediction Accuracy: 85.1927% MPKI: 20.508 Average ROB Occupancy at Mispredict: 84.4438

ChampSim completed all CPUs

Total Simulation Statistics (not including warmup)

CPU 0 cumulative IPC: 0.431743 instructions: 200352313 cycles: 464054682
ITLB TOTAL     ACCESS: 24492629  HIT: 24492629  MISS:     0  HIT %:   100  MISS %:     0  AVERAGE MISS PENALTY: 0
ITLB LOAD      ACCESS: 24492629  HIT: 24492629  MISS:     0  HIT %:   100  MISS %:     0  AVERAGE MISS PENALTY: 0
ITLB RFO       ACCESS:     0  HIT:     0  MISS:     0  HIT %:     0  MISS %:     0  AVERAGE MISS PENALTY: 0
ITLB PREFETCH  ACCESS:     0  HIT:     0  MISS:     0  HIT %:     0  MISS %:     0  AVERAGE MISS PENALTY: 0
ITLB WRITEBACK ACCESS:     0  HIT:     0  MISS:     0  HIT %:     0  MISS %:     0  AVERAGE MISS PENALTY: 0

DTLB TOTAL     ACCESS: 36073265  HIT: 35985339  MISS: 87926  HIT %: 99.7563  MISS %: 0.243743  AVERAGE MISS PENALTY: 149.711
DTLB LOAD      ACCESS: 34472423  HIT: 34384497  MISS: 87926  HIT %: 99.7449  MISS %: 0.255062  AVERAGE MISS PENALTY: 149.711
DTLB RFO       ACCESS: 1600842  HIT: 1600842  MISS:     0  HIT %:   100  MISS %:     0  AVERAGE MISS PENALTY: 0
DTLB PREFETCH  ACCESS:     0  HIT:     0  MISS:     0  HIT %:     0  MISS %:     0  AVERAGE MISS PENALTY: 0
DTLB WRITEBACK ACCESS:     0  HIT:     0  MISS:     0  HIT %:     0  MISS %:     0  AVERAGE MISS PENALTY: 0

STLB TOTAL     ACCESS: 87926  HIT:   288  MISS: 87638  HIT %: 0.327548  MISS %: 99.6725  AVERAGE MISS PENALTY: 100
STLB LOAD      ACCESS: 87926  HIT:   288  MISS: 87638  HIT %: 0.327548  MISS %: 99.6725  AVERAGE MISS PENALTY: 100
STLB RFO       ACCESS:     0  HIT:     0  MISS:     0  HIT %:     0  MISS %:     0  AVERAGE MISS PENALTY: 0
STLB PREFETCH  ACCESS:     0  HIT:     0  MISS:     0  HIT %:     0  MISS %:     0  AVERAGE MISS PENALTY: 0
STLB WRITEBACK ACCESS:     0  HIT:     0  MISS:     0  HIT %:     0  MISS %:     0  AVERAGE MISS PENALTY: 0

L1D TOTAL     ACCESS: 31472867  HIT: 25863003  MISS: 5609864  HIT %: 82.1756  MISS %: 17.8244  AVERAGE MISS PENALTY: 1.29926e+08
L1D LOAD      ACCESS: 22248809  HIT: 20073679  MISS: 2175130  HIT %: 90.2236  MISS %: 9.77639  AVERAGE MISS PENALTY: 3.3509e+08
L1D RFO       ACCESS: 2505712  HIT: 2505712  MISS:     0  HIT %:   100  MISS %:     0  AVERAGE MISS PENALTY: 0
L1D PREFETCH  ACCESS: 6718346  HIT: 3283612  MISS: 3434734  HIT %: 48.8753  MISS %: 51.1247  AVERAGE MISS PENALTY: 203.162
L1D WRITEBACK ACCESS:     0  HIT:     0  MISS:     0  HIT %:     0  MISS %:     0  AVERAGE MISS PENALTY: 0

L1I TOTAL     ACCESS: 30270571  HIT: 30270563  MISS:     8  HIT %:   100  MISS %: 2.64283e-05  AVERAGE MISS PENALTY: 359.875
L1I LOAD      ACCESS: 30270571  HIT: 30270563  MISS:     8  HIT %:   100  MISS %: 2.64283e-05  AVERAGE MISS PENALTY: 359.875
L1I RFO       ACCESS:     0  HIT:     0  MISS:     0  HIT %:     0  MISS %:     0  AVERAGE MISS PENALTY: 0
L1I PREFETCH  ACCESS:     0  HIT:     0  MISS:     0  HIT %:     0  MISS %:     0  AVERAGE MISS PENALTY: 0
L1I WRITEBACK ACCESS:     0  HIT:     0  MISS:     0  HIT %:     0  MISS %:     0  AVERAGE MISS PENALTY: 0

L2C TOTAL     ACCESS: 7668395  HIT: 2058577  MISS: 5609818  HIT %: 26.845  MISS %: 73.155  AVERAGE MISS PENALTY: 1.20055e+08
L2C LOAD      ACCESS: 2000318  HIT:   113  MISS: 2000205  HIT %: 0.0056491  MISS %: 99.9944  AVERAGE MISS PENALTY: 3.36707e+08
L2C RFO       ACCESS:     0  HIT:     0  MISS:     0  HIT %:     0  MISS %:     0  AVERAGE MISS PENALTY: 0
L2C PREFETCH  ACCESS: 5146383  HIT: 1536786  MISS: 3609597  HIT %: 29.8615  MISS %: 70.1385  AVERAGE MISS PENALTY: 400.944
L2C WRITEBACK ACCESS: 521694  HIT: 521678  MISS:    16  HIT %: 99.9969  MISS %: 0.00306693  AVERAGE MISS PENALTY: 0


LLC0 TOTAL     ACCESS: 766134  HIT: 49020  MISS: 717114  HIT %: 6.39836  MISS %: 93.6016  AVERAGE MISS PENALTY: 396.476
LLC0 LOAD      ACCESS: 87543  HIT:     1  MISS: 87542  HIT %: 0.0011423  MISS %: 99.9989  AVERAGE MISS PENALTY: 387.625
LLC0 RFO       ACCESS:     0  HIT:     0  MISS:     0  HIT %:     0  MISS %:     0  AVERAGE MISS PENALTY: 0
LLC0 PREFETCH  ACCESS: 613559  HIT:     0  MISS: 613559  HIT %:     0  MISS %:   100  AVERAGE MISS PENALTY: 408.086
LLC0 WRITEBACK ACCESS: 65032  HIT: 49019  MISS: 16013  HIT %: 75.3767  MISS %: 24.6233  AVERAGE MISS PENALTY: 0

LLC1 TOTAL     ACCESS: 766130  HIT: 48706  MISS: 717424  HIT %: 6.35741  MISS %: 93.6426  AVERAGE MISS PENALTY: 393.928
LLC1 LOAD      ACCESS: 23300  HIT:     0  MISS: 23300  HIT %:     0  MISS %:   100  AVERAGE MISS PENALTY: 261.714
LLC1 RFO       ACCESS:     0  HIT:     0  MISS:     0  HIT %:     0  MISS %:     0  AVERAGE MISS PENALTY: 0
LLC1 PREFETCH  ACCESS: 677799  HIT:     0  MISS: 677799  HIT %:     0  MISS %:   100  AVERAGE MISS PENALTY: 407.961
LLC1 WRITEBACK ACCESS: 65031  HIT: 48706  MISS: 16325  HIT %: 74.8966  MISS %: 25.1034  AVERAGE MISS PENALTY: 0

LLC2 TOTAL     ACCESS: 766400  HIT: 48853  MISS: 717547  HIT %: 6.37435  MISS %: 93.6257  AVERAGE MISS PENALTY: 443.278
LLC2 LOAD      ACCESS:   277  HIT:   141  MISS:   136  HIT %: 50.9025  MISS %: 49.0975  AVERAGE MISS PENALTY: 518.14
LLC2 RFO       ACCESS:     0  HIT:     0  MISS:     0  HIT %:     0  MISS %:     0  AVERAGE MISS PENALTY: 0
LLC2 PREFETCH  ACCESS: 701090  HIT:     0  MISS: 701090  HIT %:     0  MISS %:   100  AVERAGE MISS PENALTY: 453.583
LLC2 WRITEBACK ACCESS: 65033  HIT: 48712  MISS: 16321  HIT %: 74.9035  MISS %: 25.0965  AVERAGE MISS PENALTY: 0

LLC3 TOTAL     ACCESS: 766395  HIT: 48808  MISS: 717587  HIT %: 6.36852  MISS %: 93.6315  AVERAGE MISS PENALTY: 438.522
LLC3 LOAD      ACCESS:   275  HIT:   156  MISS:   119  HIT %: 56.7273  MISS %: 43.2727  AVERAGE MISS PENALTY: 495.345
LLC3 RFO       ACCESS:     0  HIT:     0  MISS:     0  HIT %:     0  MISS %:     0  AVERAGE MISS PENALTY: 0
LLC3 PREFETCH  ACCESS: 701090  HIT:     0  MISS: 701090  HIT %:     0  MISS %:   100  AVERAGE MISS PENALTY: 448.756
LLC3 WRITEBACK ACCESS: 65030  HIT: 48652  MISS: 16378  HIT %: 74.8147  MISS %: 25.1853  AVERAGE MISS PENALTY: 0

LLC4 TOTAL     ACCESS: 766130  HIT: 48658  MISS: 717472  HIT %: 6.35114  MISS %: 93.6489  AVERAGE MISS PENALTY: 400.187
LLC4 LOAD      ACCESS:     5  HIT:     0  MISS:     5  HIT %:     0  MISS %:   100  AVERAGE MISS PENALTY: 380.8
LLC4 RFO       ACCESS:     0  HIT:     0  MISS:     0  HIT %:     0  MISS %:     0  AVERAGE MISS PENALTY: 0
LLC4 PREFETCH  ACCESS: 701093  HIT:     0  MISS: 701093  HIT %:     0  MISS %:   100  AVERAGE MISS PENALTY: 409.534
LLC4 WRITEBACK ACCESS: 65032  HIT: 48658  MISS: 16374  HIT %: 74.8216  MISS %: 25.1784  AVERAGE MISS PENALTY: 0

LLC5 TOTAL     ACCESS: 766338  HIT: 48965  MISS: 717373  HIT %: 6.38948  MISS %: 93.6105  AVERAGE MISS PENALTY: 394.049
LLC5 LOAD      ACCESS:   214  HIT:   116  MISS:    98  HIT %: 54.2056  MISS %: 45.7944  AVERAGE MISS PENALTY: 361.99
LLC5 RFO       ACCESS:     0  HIT:     0  MISS:     0  HIT %:     0  MISS %:     0  AVERAGE MISS PENALTY: 0
LLC5 PREFETCH  ACCESS: 701093  HIT:     0  MISS: 701093  HIT %:     0  MISS %:   100  AVERAGE MISS PENALTY: 403.149
LLC5 WRITEBACK ACCESS: 65031  HIT: 48849  MISS: 16182  HIT %: 75.1165  MISS %: 24.8835  AVERAGE MISS PENALTY: 0

LLC6 TOTAL     ACCESS: 766129  HIT: 48689  MISS: 717440  HIT %: 6.3552  MISS %: 93.6448  AVERAGE MISS PENALTY: 440.972
LLC6 LOAD      ACCESS:     0  HIT:     0  MISS:     0  HIT %:     0  MISS %:     0  AVERAGE MISS PENALTY: 0
LLC6 RFO       ACCESS:     0  HIT:     0  MISS:     0  HIT %:     0  MISS %:     0  AVERAGE MISS PENALTY: 0
LLC6 PREFETCH  ACCESS: 701098  HIT:     0  MISS: 701098  HIT %:     0  MISS %:   100  AVERAGE MISS PENALTY: 451.251
LLC6 WRITEBACK ACCESS: 65031  HIT: 48689  MISS: 16342  HIT %: 74.8704  MISS %: 25.1296  AVERAGE MISS PENALTY: 0

LLC7 TOTAL     ACCESS: 766396  HIT: 48877  MISS: 717519  HIT %: 6.37751  MISS %: 93.6225  AVERAGE MISS PENALTY: 433.322
LLC7 LOAD      ACCESS:   274  HIT:   138  MISS:   136  HIT %: 50.365  MISS %: 49.635  AVERAGE MISS PENALTY: 517.853
LLC7 RFO       ACCESS:     0  HIT:     0  MISS:     0  HIT %:     0  MISS %:     0  AVERAGE MISS PENALTY: 0
LLC7 PREFETCH  ACCESS: 701092  HIT:     0  MISS: 701092  HIT %:     0  MISS %:   100  AVERAGE MISS PENALTY: 443.375
LLC7 WRITEBACK ACCESS: 65030  HIT: 48739  MISS: 16291  HIT %: 74.9485  MISS %: 25.0515  AVERAGE MISS PENALTY: 0

Total Rob stall cycles : 	422588922
Total Load Rob Stall cycles : 	283638640
Average Rob Stall cycles : 	 15
Average Load Rob Stall cycles : 	 49

CPU 1 cumulative IPC: 0.432987 instructions: 200929736 cycles: 464054682
ITLB TOTAL     ACCESS: 24549433  HIT: 24549433  MISS:     0  HIT %:   100  MISS %:     0  AVERAGE MISS PENALTY: 0
ITLB LOAD      ACCESS: 24549433  HIT: 24549433  MISS:     0  HIT %:   100  MISS %:     0  AVERAGE MISS PENALTY: 0
ITLB RFO       ACCESS:     0  HIT:     0  MISS:     0  HIT %:     0  MISS %:     0  AVERAGE MISS PENALTY: 0
ITLB PREFETCH  ACCESS:     0  HIT:     0  MISS:     0  HIT %:     0  MISS %:     0  AVERAGE MISS PENALTY: 0
ITLB WRITEBACK ACCESS:     0  HIT:     0  MISS:     0  HIT %:     0  MISS %:     0  AVERAGE MISS PENALTY: 0

DTLB TOTAL     ACCESS: 36178777  HIT: 36090575  MISS: 88202  HIT %: 99.7562  MISS %: 0.243795  AVERAGE MISS PENALTY: 150.025
DTLB LOAD      ACCESS: 34559740  HIT: 34471538  MISS: 88202  HIT %: 99.7448  MISS %: 0.255216  AVERAGE MISS PENALTY: 150.025
DTLB RFO       ACCESS: 1619037  HIT: 1619037  MISS:     0  HIT %:   100  MISS %:     0  AVERAGE MISS PENALTY: 0
DTLB PREFETCH  ACCESS:     0  HIT:     0  MISS:     0  HIT %:     0  MISS %:     0  AVERAGE MISS PENALTY: 0
DTLB WRITEBACK ACCESS:     0  HIT:     0  MISS:     0  HIT %:     0  MISS %:     0  AVERAGE MISS PENALTY: 0

STLB TOTAL     ACCESS: 88202  HIT:   288  MISS: 87914  HIT %: 0.326523  MISS %: 99.6735  AVERAGE MISS PENALTY: 100
STLB LOAD      ACCESS: 88202  HIT:   288  MISS: 87914  HIT %: 0.326523  MISS %: 99.6735  AVERAGE MISS PENALTY: 100
STLB RFO       ACCESS:     0  HIT:     0  MISS:     0  HIT %:     0  MISS %:     0  AVERAGE MISS PENALTY: 0
STLB PREFETCH  ACCESS:     0  HIT:     0  MISS:     0  HIT %:     0  MISS %:     0  AVERAGE MISS PENALTY: 0
STLB WRITEBACK ACCESS:     0  HIT:     0  MISS:     0  HIT %:     0  MISS %:     0  AVERAGE MISS PENALTY: 0

L1D TOTAL     ACCESS: 31615477  HIT: 25987920  MISS: 5627557  HIT %:  82.2  MISS %:  17.8  AVERAGE MISS PENALTY: 1.30079e+08
L1D LOAD      ACCESS: 22323583  HIT: 20143274  MISS: 2180309  HIT %: 90.2332  MISS %: 9.76684  AVERAGE MISS PENALTY: 3.35745e+08
L1D RFO       ACCESS: 2534025  HIT: 2534025  MISS:     0  HIT %:   100  MISS %:     0  AVERAGE MISS PENALTY: 0
L1D PREFETCH  ACCESS: 6757869  HIT: 3310621  MISS: 3447248  HIT %: 48.9891  MISS %: 51.0109  AVERAGE MISS PENALTY: 202.331
L1D WRITEBACK ACCESS:     0  HIT:     0  MISS:     0  HIT %:     0  MISS %:     0  AVERAGE MISS PENALTY: 0

L1I TOTAL     ACCESS: 30355777  HIT: 30355769  MISS:     8  HIT %:   100  MISS %: 2.63541e-05  AVERAGE MISS PENALTY: 235.5
L1I LOAD      ACCESS: 30355777  HIT: 30355769  MISS:     8  HIT %:   100  MISS %: 2.63541e-05  AVERAGE MISS PENALTY: 235.5
L1I RFO       ACCESS:     0  HIT:     0  MISS:     0  HIT %:     0  MISS %:     0  AVERAGE MISS PENALTY: 0
L1I PREFETCH  ACCESS:     0  HIT:     0  MISS:     0  HIT %:     0  MISS %:     0  AVERAGE MISS PENALTY: 0
L1I WRITEBACK ACCESS:     0  HIT:     0  MISS:     0  HIT %:     0  MISS %:     0  AVERAGE MISS PENALTY: 0

L2C TOTAL     ACCESS: 7701585  HIT: 2074100  MISS: 5627485  HIT %: 26.9308  MISS %: 73.0692  AVERAGE MISS PENALTY: 1.20215e+08
L2C LOAD      ACCESS: 2005753  HIT:   120  MISS: 2005633  HIT %: 0.00598279  MISS %: 99.994  AVERAGE MISS PENALTY: 3.37303e+08
L2C RFO       ACCESS:     0  HIT:     0  MISS:     0  HIT %:     0  MISS %:     0  AVERAGE MISS PENALTY: 0
L2C PREFETCH  ACCESS: 5168240  HIT: 1546388  MISS: 3621852  HIT %: 29.921  MISS %: 70.079  AVERAGE MISS PENALTY: 399.846
L2C WRITEBACK ACCESS: 527592  HIT: 527592  MISS:     0  HIT %:   100  MISS %:     0  AVERAGE MISS PENALTY: 0


LLC0 TOTAL     ACCESS: 768894  HIT: 45598  MISS: 723296  HIT %: 5.93034  MISS %: 94.0697  AVERAGE MISS PENALTY: 392.639
LLC0 LOAD      ACCESS: 87805  HIT:     0  MISS: 87805  HIT %:     0  MISS %:   100  AVERAGE MISS PENALTY: 387.204
LLC0 RFO       ACCESS:     0  HIT:     0  MISS:     0  HIT %:     0  MISS %:     0  AVERAGE MISS PENALTY: 0
LLC0 PREFETCH  ACCESS: 615508  HIT:     0  MISS: 615508  HIT %:     0  MISS %:   100  AVERAGE MISS PENALTY: 406.161
LLC0 WRITEBACK ACCESS: 65581  HIT: 45598  MISS: 19983  HIT %: 69.5293  MISS %: 30.4707  AVERAGE MISS PENALTY: 0

LLC1 TOTAL     ACCESS: 768892  HIT: 45572  MISS: 723320  HIT %: 5.92697  MISS %: 94.073  AVERAGE MISS PENALTY: 390.102
LLC1 LOAD      ACCESS: 23294  HIT:     0  MISS: 23294  HIT %:     0  MISS %:   100  AVERAGE MISS PENALTY: 260.653
LLC1 RFO       ACCESS:     0  HIT:     0  MISS:     0  HIT %:     0  MISS %:     0  AVERAGE MISS PENALTY: 0
LLC1 PREFETCH  ACCESS: 680017  HIT:     0  MISS: 680017  HIT %:     0  MISS %:   100  AVERAGE MISS PENALTY: 406.015
LLC1 WRITEBACK ACCESS: 65581  HIT: 45572  MISS: 20009  HIT %: 69.4896  MISS %: 30.5104  AVERAGE MISS PENALTY: 0

LLC2 TOTAL     ACCESS: 769155  HIT: 45893  MISS: 723262  HIT %: 5.96668  MISS %: 94.0333  AVERAGE MISS PENALTY: 440.782
LLC2 LOAD      ACCESS:   273  HIT:   136  MISS:   137  HIT %: 49.8168  MISS %: 50.1832  AVERAGE MISS PENALTY: 498.964
LLC2 RFO       ACCESS:     0  HIT:     0  MISS:     0  HIT %:     0  MISS %:     0  AVERAGE MISS PENALTY: 0
LLC2 PREFETCH  ACCESS: 703301  HIT:     0  MISS: 703301  HIT %:     0  MISS %:   100  AVERAGE MISS PENALTY: 453.195
LLC2 WRITEBACK ACCESS: 65581  HIT: 45757  MISS: 19824  HIT %: 69.7717  MISS %: 30.2283  AVERAGE MISS PENALTY: 0

LLC3 TOTAL     ACCESS: 769158  HIT: 45813  MISS: 723345  HIT %: 5.95625  MISS %: 94.0437  AVERAGE MISS PENALTY: 436.064
LLC3 LOAD      ACCESS:   272  HIT:   130  MISS:   142  HIT %: 47.7941  MISS %: 52.2059  AVERAGE MISS PENALTY: 510.965
LLC3 RFO       ACCESS:     0  HIT:     0  MISS:     0  HIT %:     0  MISS %:     0  AVERAGE MISS PENALTY: 0
LLC3 PREFETCH  ACCESS: 703305  HIT:     0  MISS: 703305  HIT %:     0  MISS %:   100  AVERAGE MISS PENALTY: 448.386
LLC3 WRITEBACK ACCESS: 65581  HIT: 45683  MISS: 19898  HIT %: 69.6589  MISS %: 30.3411  AVERAGE MISS PENALTY: 0

LLC4 TOTAL     ACCESS: 768890  HIT: 45799  MISS: 723091  HIT %: 5.95651  MISS %: 94.0435  AVERAGE MISS PENALTY: 396.524
[...]
LLC1 WRITEBACK ACCESS: 64547  HIT: 48724  MISS: 15823  HIT %: 75.4861  MISS %: 24.5139  AVERAGE MISS PENALTY: 0
LLC1 PREFETCH  REQUESTED:     0  ISSUED:     0  USEFUL:     0  USELESS: 5440104
 USEFUL LOAD PREFETCHES:          0 PREFETCH ISSUED TO LOWER LEVEL:    5437292  ACCURACY: 0
 TIMELY PREFETCHES:          0 LATE PREFETCHES: 0 DROPPED PREFETCHES: 0
LLC1 AVERAGE MISS LATENCY: 386.948 cycles
LLC2 TOTAL     ACCESS: 764562  HIT: 48871  MISS: 715691  HIT %: 6.39203  MISS %: 93.608  AVERAGE MISS PENALTY: 439.217
LLC2 LOAD      ACCESS:   274  HIT:   148  MISS:   126  HIT %: 54.0146  MISS %: 45.9854  AVERAGE MISS PENALTY: 453.31
LLC2 RFO       ACCESS:     0  HIT:     0  MISS:     0  HIT %:     0  MISS %:     0  AVERAGE MISS PENALTY: 0
LLC2 PREFETCH  ACCESS: 699741  HIT:     0  MISS: 699741  HIT %:     0  MISS %:   100  AVERAGE MISS PENALTY: 449.147
LLC2 WRITEBACK ACCESS: 64547  HIT: 48723  MISS: 15824  HIT %: 75.4845  MISS %: 24.5155  AVERAGE MISS PENALTY: 0
LLC2 PREFETCH  REQUESTED:     0  ISSUED:     0  USEFUL:     0  USELESS: 5626373
 USEFUL LOAD PREFETCHES:          0 PREFETCH ISSUED TO LOWER LEVEL:    5623523  ACCURACY: 0
 TIMELY PREFETCHES:          0 LATE PREFETCHES: 0 DROPPED PREFETCHES: 0
LLC2 AVERAGE MISS LATENCY: 439.217 cycles
LLC3 TOTAL     ACCESS: 764563  HIT: 48919  MISS: 715644  HIT %: 6.3983  MISS %: 93.6017  AVERAGE MISS PENALTY: 434.431
LLC3 LOAD      ACCESS:   275  HIT:   143  MISS:   132  HIT %:    52  MISS %:    48  AVERAGE MISS PENALTY: 471.409
LLC3 RFO       ACCESS:     0  HIT:     0  MISS:     0  HIT %:     0  MISS %:     0  AVERAGE MISS PENALTY: 0
LLC3 PREFETCH  ACCESS: 699741  HIT:     0  MISS: 699741  HIT %:     0  MISS %:   100  AVERAGE MISS PENALTY: 444.215
LLC3 WRITEBACK ACCESS: 64547  HIT: 48776  MISS: 15771  HIT %: 75.5666  MISS %: 24.4334  AVERAGE MISS PENALTY: 0
LLC3 PREFETCH  REQUESTED:     0  ISSUED:     0  USEFUL:     2  USELESS: 5626349
 USEFUL LOAD PREFETCHES:          2 PREFETCH ISSUED TO LOWER LEVEL:    5623526  ACCURACY: 3.55649e-05
 TIMELY PREFETCHES:          2 LATE PREFETCHES: 0 DROPPED PREFETCHES: 0
LLC3 AVERAGE MISS LATENCY: 434.431 cycles
LLC4 TOTAL     ACCESS: 764295  HIT: 48695  MISS: 715600  HIT %: 6.37123  MISS %: 93.6288  AVERAGE MISS PENALTY: 392.732
LLC4 LOAD      ACCESS:     4  HIT:     0  MISS:     4  HIT %:     0  MISS %:   100  AVERAGE MISS PENALTY: 326.75
LLC4 RFO       ACCESS:     0  HIT:     0  MISS:     0  HIT %:     0  MISS %:     0  AVERAGE MISS PENALTY: 0
LLC4 PREFETCH  ACCESS: 699744  HIT:     0  MISS: 699744  HIT %:     0  MISS %:   100  AVERAGE MISS PENALTY: 401.629
LLC4 WRITEBACK ACCESS: 64547  HIT: 48695  MISS: 15852  HIT %: 75.4412  MISS %: 24.5588  AVERAGE MISS PENALTY: 0
LLC4 PREFETCH  REQUESTED:     0  ISSUED:     0  USEFUL:     0  USELESS: 5626353
 USEFUL LOAD PREFETCHES:          0 PREFETCH ISSUED TO LOWER LEVEL:    5624230  ACCURACY: 0
 TIMELY PREFETCHES:          0 LATE PREFETCHES: 0 DROPPED PREFETCHES: 0
LLC4 AVERAGE MISS LATENCY: 392.732 cycles
LLC5 TOTAL     ACCESS: 764504  HIT: 48656  MISS: 715848  HIT %: 6.36439  MISS %: 93.6356  AVERAGE MISS PENALTY: 387.404
LLC5 LOAD      ACCESS:   214  HIT:   114  MISS:   100  HIT %: 53.271  MISS %: 46.729  AVERAGE MISS PENALTY: 340.43
LLC5 RFO       ACCESS:     0  HIT:     0  MISS:     0  HIT %:     0  MISS %:     0  AVERAGE MISS PENALTY: 0
LLC5 PREFETCH  ACCESS: 699743  HIT:     0  MISS: 699743  HIT %:     0  MISS %:   100  AVERAGE MISS PENALTY: 396.271
LLC5 WRITEBACK ACCESS: 64547  HIT: 48542  MISS: 16005  HIT %: 75.2041  MISS %: 24.7959  AVERAGE MISS PENALTY: 0
LLC5 PREFETCH  REQUESTED:     0  ISSUED:     0  USEFUL:     0  USELESS: 5626288
 USEFUL LOAD PREFETCHES:          0 PREFETCH ISSUED TO LOWER LEVEL:    5623534  ACCURACY: 0
 TIMELY PREFETCHES:          0 LATE PREFETCHES: 0 DROPPED PREFETCHES: 0
LLC5 AVERAGE MISS LATENCY: 387.404 cycles
LLC6 TOTAL     ACCESS: 764294  HIT: 48622  MISS: 715672  HIT %: 6.36169  MISS %: 93.6383  AVERAGE MISS PENALTY: 437.828
LLC6 LOAD      ACCESS:     3  HIT:     0  MISS:     3  HIT %:     0  MISS %:   100  AVERAGE MISS PENALTY: 289
LLC6 RFO       ACCESS:     0  HIT:     0  MISS:     0  HIT %:     0  MISS %:     0  AVERAGE MISS PENALTY: 0
LLC6 PREFETCH  ACCESS: 699744  HIT:     0  MISS: 699744  HIT %:     0  MISS %:   100  AVERAGE MISS PENALTY: 447.793
LLC6 WRITEBACK ACCESS: 64547  HIT: 48622  MISS: 15925  HIT %: 75.3281  MISS %: 24.6719  AVERAGE MISS PENALTY: 0
LLC6 PREFETCH  REQUESTED:     0  ISSUED:     0  USEFUL:     0  USELESS: 5626334
 USEFUL LOAD PREFETCHES:          0 PREFETCH ISSUED TO LOWER LEVEL:    5623550  ACCURACY: 0
 TIMELY PREFETCHES:          0 LATE PREFETCHES: 0 DROPPED PREFETCHES: 0
LLC6 AVERAGE MISS LATENCY: 437.828 cycles
LLC7 TOTAL     ACCESS: 764561  HIT: 48845  MISS: 715716  HIT %: 6.38863  MISS %: 93.6114  AVERAGE MISS PENALTY: 430.584
LLC7 LOAD      ACCESS:   270  HIT:   143  MISS:   127  HIT %: 52.963  MISS %: 47.037  AVERAGE MISS PENALTY: 487.874
LLC7 RFO       ACCESS:     0  HIT:     0  MISS:     0  HIT %:     0  MISS %:     0  AVERAGE MISS PENALTY: 0
LLC7 PREFETCH  ACCESS: 699745  HIT:     0  MISS: 699745  HIT %:     0  MISS %:   100  AVERAGE MISS PENALTY: 440.323
LLC7 WRITEBACK ACCESS: 64546  HIT: 48702  MISS: 15844  HIT %: 75.4532  MISS %: 24.5468  AVERAGE MISS PENALTY: 0
LLC7 PREFETCH  REQUESTED:     0  ISSUED:     0  USEFUL:     0  USELESS: 5626302
 USEFUL LOAD PREFETCHES:          0 PREFETCH ISSUED TO LOWER LEVEL:    5623527  ACCURACY: 0
 TIMELY PREFETCHES:          0 LATE PREFETCHES: 0 DROPPED PREFETCHES: 0
LLC7 AVERAGE MISS LATENCY: 430.584 cycles
ROI Average ROB Stall Cycles:	14.8738
ROI Total ROB Stalls Cycles:	417652997
ROI TOTAL ROB counter      :	28079770
ROI Average Load ROB Stall Cycles:	48.7668
ROI Total Load ROB Stalls Cycle  :	280900606
ROI Total Load ROB stalls Counter:	5760073
Major fault: 0 Minor fault: 99679

CPU 7 cumulative IPC: 0.430984 instructions: 200000002 cycles: 464054682
ITLB TOTAL     ACCESS: 24457961  HIT: 24457961  MISS:     0  HIT %:   100  MISS %:     0  AVERAGE MISS PENALTY: 0
ITLB LOAD      ACCESS: 24457961  HIT: 24457961  MISS:     0  HIT %:   100  MISS %:     0  AVERAGE MISS PENALTY: 0
ITLB RFO       ACCESS:     0  HIT:     0  MISS:     0  HIT %:     0  MISS %:     0  AVERAGE MISS PENALTY: 0
ITLB PREFETCH  ACCESS:     0  HIT:     0  MISS:     0  HIT %:     0  MISS %:     0  AVERAGE MISS PENALTY: 0
ITLB WRITEBACK ACCESS:     0  HIT:     0  MISS:     0  HIT %:     0  MISS %:     0  AVERAGE MISS PENALTY: 0
ITLB PREFETCH  REQUESTED:     0  ISSUED:     0  USEFUL:     0  USELESS:     0
 USEFUL LOAD PREFETCHES:          0 PREFETCH ISSUED TO LOWER LEVEL:          0  ACCURACY: -nan
 TIMELY PREFETCHES:          0 LATE PREFETCHES: 0 DROPPED PREFETCHES: 0
ITLB AVERAGE MISS LATENCY: -nan cycles
DTLB TOTAL     ACCESS: 36012807  HIT: 35925050  MISS: 87757  HIT %: 99.7563  MISS %: 0.243683  AVERAGE MISS PENALTY: 149.499
DTLB LOAD      ACCESS: 34422505  HIT: 34334748  MISS: 87757  HIT %: 99.7451  MISS %: 0.254941  AVERAGE MISS PENALTY: 149.499
DTLB RFO       ACCESS: 1590302  HIT: 1590302  MISS:     0  HIT %:   100  MISS %:     0  AVERAGE MISS PENALTY: 0
DTLB PREFETCH  ACCESS:     0  HIT:     0  MISS:     0  HIT %:     0  MISS %:     0  AVERAGE MISS PENALTY: 0
DTLB WRITEBACK ACCESS:     0  HIT:     0  MISS:     0  HIT %:     0  MISS %:     0  AVERAGE MISS PENALTY: 0
DTLB PREFETCH  REQUESTED:     0  ISSUED:     0  USEFUL:     0  USELESS:     0
 USEFUL LOAD PREFETCHES:          0 PREFETCH ISSUED TO LOWER LEVEL:          0  ACCURACY: -nan
 TIMELY PREFETCHES:          0 LATE PREFETCHES: 0 DROPPED PREFETCHES: 0
DTLB AVERAGE MISS LATENCY: 149.499 cycles
STLB TOTAL     ACCESS: 87757  HIT:   287  MISS: 87470  HIT %: 0.327039  MISS %: 99.673  AVERAGE MISS PENALTY: 100
STLB LOAD      ACCESS: 87757  HIT:   287  MISS: 87470  HIT %: 0.327039  MISS %: 99.673  AVERAGE MISS PENALTY: 100
STLB RFO       ACCESS:     0  HIT:     0  MISS:     0  HIT %:     0  MISS %:     0  AVERAGE MISS PENALTY: 0
STLB PREFETCH  ACCESS:     0  HIT:     0  MISS:     0  HIT %:     0  MISS %:     0  AVERAGE MISS PENALTY: 0
STLB WRITEBACK ACCESS:     0  HIT:     0  MISS:     0  HIT %:     0  MISS %:     0  AVERAGE MISS PENALTY: 0
STLB PREFETCH  REQUESTED:     0  ISSUED:     0  USEFUL:     0  USELESS:     0
 USEFUL LOAD PREFETCHES:          0 PREFETCH ISSUED TO LOWER LEVEL:          0  ACCURACY: -nan
 TIMELY PREFETCHES:          0 LATE PREFETCHES: 0 DROPPED PREFETCHES: 0
STLB AVERAGE MISS LATENCY: 100 cycles
L1D TOTAL     ACCESS: 31380420  HIT: 25781364  MISS: 5599056  HIT %: 82.1575  MISS %: 17.8425  AVERAGE MISS PENALTY: 1.30214e+08
L1D LOAD      ACCESS: 22204092  HIT: 20028844  MISS: 2175248  HIT %: 90.2034  MISS %: 9.79661  AVERAGE MISS PENALTY: 3.35168e+08
L1D RFO       ACCESS: 2488419  HIT: 2488419  MISS:     0  HIT %:   100  MISS %:     0  AVERAGE MISS PENALTY: 0
L1D PREFETCH  ACCESS: 6687909  HIT: 3264101  MISS: 3423808  HIT %: 48.806  MISS %: 51.194  AVERAGE MISS PENALTY: 203.682
L1D WRITEBACK ACCESS:     0  HIT:     0  MISS:     0  HIT %:     0  MISS %:     0  AVERAGE MISS PENALTY: 0
L1D PREFETCH  REQUESTED: 14267318  ISSUED: 14267312  USEFUL: 3423804  USELESS:     8
 USEFUL LOAD PREFETCHES:    3423804 PREFETCH ISSUED TO LOWER LEVEL:   10941890  ACCURACY: 31.2908
 TIMELY PREFETCHES:    3423804 LATE PREFETCHES: 2231155 DROPPED PREFETCHES: 6
L1D AVERAGE MISS LATENCY: 219.783 cycles
L1I TOTAL     ACCESS: 30218560  HIT: 30218552  MISS:     8  HIT %:   100  MISS %: 2.64738e-05  AVERAGE MISS PENALTY: 159.5
L1I LOAD      ACCESS: 30218560  HIT: 30218552  MISS:     8  HIT %:   100  MISS %: 2.64738e-05  AVERAGE MISS PENALTY: 159.5
L1I RFO       ACCESS:     0  HIT:     0  MISS:     0  HIT %:     0  MISS %:     0  AVERAGE MISS PENALTY: 0
L1I PREFETCH  ACCESS:     0  HIT:     0  MISS:     0  HIT %:     0  MISS %:     0  AVERAGE MISS PENALTY: 0
L1I WRITEBACK ACCESS:     0  HIT:     0  MISS:     0  HIT %:     0  MISS %:     0  AVERAGE MISS PENALTY: 0
L1I PREFETCH  REQUESTED:     0  ISSUED:     0  USEFUL:     0  USELESS:     0
 USEFUL LOAD PREFETCHES:          0 PREFETCH ISSUED TO LOWER LEVEL:          0  ACCURACY: -nan
 TIMELY PREFETCHES:          0 LATE PREFETCHES: 0 DROPPED PREFETCHES: 0
L1I AVERAGE MISS LATENCY: 159.5 cycles
L2C TOTAL     ACCESS: 7644081  HIT: 2045084  MISS: 5598997  HIT %: 26.7538  MISS %: 73.2462  AVERAGE MISS PENALTY: 1.20296e+08
L2C LOAD      ACCESS: 2000054  HIT:   112  MISS: 1999942  HIT %: 0.00559985  MISS %: 99.9944  AVERAGE MISS PENALTY: 3.36778e+08
L2C RFO       ACCESS:     0  HIT:     0  MISS:     0  HIT %:     0  MISS %:     0  AVERAGE MISS PENALTY: 0
L2C PREFETCH  ACCESS: 5125935  HIT: 1526880  MISS: 3599055  HIT %: 29.7873  MISS %: 70.2127  AVERAGE MISS PENALTY: 401.88
L2C WRITEBACK ACCESS: 518092  HIT: 518092  MISS:     0  HIT %:   100  MISS %:     0  AVERAGE MISS PENALTY: 0
L2C PREFETCH  REQUESTED: 8607843  ISSUED: 8607843  USEFUL:    40  USELESS: 3600796
 USEFUL LOAD PREFETCHES:         40 PREFETCH ISSUED TO LOWER LEVEL:   10187328  ACCURACY: 0.000392645
 TIMELY PREFETCHES:         40 LATE PREFETCHES: 1921061 DROPPED PREFETCHES: 0
L2C AVERAGE MISS LATENCY: 349.461 cycles
LLC0 TOTAL     ACCESS: 764198  HIT: 44948  MISS: 719250  HIT %: 5.88172  MISS %: 94.1183  AVERAGE MISS PENALTY: 395.374
LLC0 LOAD      ACCESS: 87385  HIT:     1  MISS: 87384  HIT %: 0.00114436  MISS %: 99.9989  AVERAGE MISS PENALTY: 388.085
LLC0 RFO       ACCESS:     0  HIT:     0  MISS:     0  HIT %:     0  MISS %:     0  AVERAGE MISS PENALTY: 0
LLC0 PREFETCH  ACCESS: 612364  HIT:     0  MISS: 612364  HIT %:     0  MISS %:   100  AVERAGE MISS PENALTY: 409.005
LLC0 WRITEBACK ACCESS: 64449  HIT: 44947  MISS: 19502  HIT %: 69.7404  MISS %: 30.2596  AVERAGE MISS PENALTY: 0
LLC0 PREFETCH  REQUESTED:     0  ISSUED:     0  USEFUL:     4  USELESS: 4923802
 USEFUL LOAD PREFETCHES:          4 PREFETCH ISSUED TO LOWER LEVEL:    4921428  ACCURACY: 8.12772e-05
 TIMELY PREFETCHES:          4 LATE PREFETCHES: 0 DROPPED PREFETCHES: 0
LLC0 AVERAGE MISS LATENCY: 395.374 cycles
Deadblocks : 702160 Deadblock percentage : 803.534

LLC1 TOTAL     ACCESS: 764198  HIT: 44873  MISS: 719325  HIT %: 5.87191  MISS %: 94.1281  AVERAGE MISS PENALTY: 393.301
LLC1 LOAD      ACCESS: 23335  HIT:     0  MISS: 23335  HIT %:     0  MISS %:   100  AVERAGE MISS PENALTY: 264.48
LLC1 RFO       ACCESS:     0  HIT:     0  MISS:     0  HIT %:     0  MISS %:     0  AVERAGE MISS PENALTY: 0
LLC1 PREFETCH  ACCESS: 676414  HIT:     0  MISS: 676414  HIT %:     0  MISS %:   100  AVERAGE MISS PENALTY: 409.128
LLC1 WRITEBACK ACCESS: 64449  HIT: 44873  MISS: 19576  HIT %: 69.6256  MISS %: 30.3744  AVERAGE MISS PENALTY: 0
LLC1 PREFETCH  REQUESTED:     0  ISSUED:     0  USEFUL:     0  USELESS: 5440104
 USEFUL LOAD PREFETCHES:          0 PREFETCH ISSUED TO LOWER LEVEL:    5437292  ACCURACY: 0
 TIMELY PREFETCHES:          0 LATE PREFETCHES: 0 DROPPED PREFETCHES: 0
LLC1 AVERAGE MISS LATENCY: 393.301 cycles
LLC2 TOTAL     ACCESS: 764467  HIT: 45104  MISS: 719363  HIT %: 5.90006  MISS %: 94.0999  AVERAGE MISS PENALTY: 441.598
LLC2 LOAD      ACCESS:   276  HIT:   154  MISS:   122  HIT %: 55.7971  MISS %: 44.2029  AVERAGE MISS PENALTY: 508.713
LLC2 RFO       ACCESS:     0  HIT:     0  MISS:     0  HIT %:     0  MISS %:     0  AVERAGE MISS PENALTY: 0
LLC2 PREFETCH  ACCESS: 699741  HIT:     0  MISS: 699741  HIT %:     0  MISS %:   100  AVERAGE MISS PENALTY: 453.892
LLC2 WRITEBACK ACCESS: 64450  HIT: 44950  MISS: 19500  HIT %: 69.744  MISS %: 30.256  AVERAGE MISS PENALTY: 0
LLC2 PREFETCH  REQUESTED:     0  ISSUED:     0  USEFUL:     0  USELESS: 5626373
 USEFUL LOAD PREFETCHES:          0 PREFETCH ISSUED TO LOWER LEVEL:    5623523  ACCURACY: 0
 TIMELY PREFETCHES:          0 LATE PREFETCHES: 0 DROPPED PREFETCHES: 0
LLC2 AVERAGE MISS LATENCY: 441.598 cycles
LLC3 TOTAL     ACCESS: 764467  HIT: 44745  MISS: 719722  HIT %: 5.8531  MISS %: 94.1469  AVERAGE MISS PENALTY: 437.007
LLC3 LOAD      ACCESS:   276  HIT:   149  MISS:   127  HIT %: 53.9855  MISS %: 46.0145  AVERAGE MISS PENALTY: 470.921
LLC3 RFO       ACCESS:     0  HIT:     0  MISS:     0  HIT %:     0  MISS %:     0  AVERAGE MISS PENALTY: 0
LLC3 PREFETCH  ACCESS: 699741  HIT:     0  MISS: 699741  HIT %:     0  MISS %:   100  AVERAGE MISS PENALTY: 449.4
LLC3 WRITEBACK ACCESS: 64450  HIT: 44596  MISS: 19854  HIT %: 69.1947  MISS %: 30.8053  AVERAGE MISS PENALTY: 0
LLC3 PREFETCH  REQUESTED:     0  ISSUED:     0  USEFUL:     2  USELESS: 5626349
 USEFUL LOAD PREFETCHES:          2 PREFETCH ISSUED TO LOWER LEVEL:    5623526  ACCURACY: 3.55649e-05
 TIMELY PREFETCHES:          2 LATE PREFETCHES: 0 DROPPED PREFETCHES: 0
LLC3 AVERAGE MISS LATENCY: 437.007 cycles
LLC4 TOTAL     ACCESS: 764198  HIT: 44787  MISS: 719411  HIT %: 5.86065  MISS %: 94.1393  AVERAGE MISS PENALTY: 399.329
LLC4 LOAD      ACCESS:     5  HIT:     0  MISS:     5  HIT %:     0  MISS %:   100  AVERAGE MISS PENALTY: 282
LLC4 RFO       ACCESS:     0  HIT:     0  MISS:     0  HIT %:     0  MISS %:     0  AVERAGE MISS PENALTY: 0
LLC4 PREFETCH  ACCESS: 699743  HIT:     0  MISS: 699743  HIT %:     0  MISS %:   100  AVERAGE MISS PENALTY: 410.551
LLC4 WRITEBACK ACCESS: 64450  HIT: 44787  MISS: 19663  HIT %: 69.4911  MISS %: 30.5089  AVERAGE MISS PENALTY: 0
LLC4 PREFETCH  REQUESTED:     0  ISSUED:     0  USEFUL:     0  USELESS: 5626353
 USEFUL LOAD PREFETCHES:          0 PREFETCH ISSUED TO LOWER LEVEL:    5624230  ACCURACY: 0
 TIMELY PREFETCHES:          0 LATE PREFETCHES: 0 DROPPED PREFETCHES: 0
LLC4 AVERAGE MISS LATENCY: 399.329 cycles
LLC5 TOTAL     ACCESS: 764408  HIT: 44796  MISS: 719612  HIT %: 5.86022  MISS %: 94.1398  AVERAGE MISS PENALTY: 393.097
LLC5 LOAD      ACCESS:   215  HIT:   118  MISS:    97  HIT %: 54.8837  MISS %: 45.1163  AVERAGE MISS PENALTY: 345.041
LLC5 RFO       ACCESS:     0  HIT:     0  MISS:     0  HIT %:     0  MISS %:     0  AVERAGE MISS PENALTY: 0
LLC5 PREFETCH  ACCESS: 699743  HIT:     0  MISS: 699743  HIT %:     0  MISS %:   100  AVERAGE MISS PENALTY: 404.211
LLC5 WRITEBACK ACCESS: 64450  HIT: 44678  MISS: 19772  HIT %: 69.322  MISS %: 30.678  AVERAGE MISS PENALTY: 0
LLC5 PREFETCH  REQUESTED:     0  ISSUED:     0  USEFUL:     0  USELESS: 5626288
 USEFUL LOAD PREFETCHES:          0 PREFETCH ISSUED TO LOWER LEVEL:    5623534  ACCURACY: 0
 TIMELY PREFETCHES:          0 LATE PREFETCHES: 0 DROPPED PREFETCHES: 0
LLC5 AVERAGE MISS LATENCY: 393.097 cycles
LLC6 TOTAL     ACCESS: 764194  HIT: 44809  MISS: 719385  HIT %: 5.86356  MISS %: 94.1364  AVERAGE MISS PENALTY: 439.424
LLC6 LOAD      ACCESS:     0  HIT:     0  MISS:     0  HIT %:     0  MISS %:     0  AVERAGE MISS PENALTY: 0
LLC6 RFO       ACCESS:     0  HIT:     0  MISS:     0  HIT %:     0  MISS %:     0  AVERAGE MISS PENALTY: 0
LLC6 PREFETCH  ACCESS: 699745  HIT:     0  MISS: 699745  HIT %:     0  MISS %:   100  AVERAGE MISS PENALTY: 451.758
LLC6 WRITEBACK ACCESS: 64449  HIT: 44809  MISS: 19640  HIT %: 69.5263  MISS %: 30.4737  AVERAGE MISS PENALTY: 0
LLC6 PREFETCH  REQUESTED:     0  ISSUED:     0  USEFUL:     0  USELESS: 5626334
 USEFUL LOAD PREFETCHES:          0 PREFETCH ISSUED TO LOWER LEVEL:    5623550  ACCURACY: 0
 TIMELY PREFETCHES:          0 LATE PREFETCHES: 0 DROPPED PREFETCHES: 0
LLC6 AVERAGE MISS LATENCY: 439.425 cycles
LLC7 TOTAL     ACCESS: 764463  HIT: 44955  MISS: 719508  HIT %: 5.8806  MISS %: 94.1194  AVERAGE MISS PENALTY: 432.716
LLC7 LOAD      ACCESS:   274  HIT:   134  MISS:   140  HIT %: 48.9051  MISS %: 51.0949  AVERAGE MISS PENALTY: 521.35
LLC7 RFO       ACCESS:     0  HIT:     0  MISS:     0  HIT %:     0  MISS %:     0  AVERAGE MISS PENALTY: 0
LLC7 PREFETCH  ACCESS: 699740  HIT:     0  MISS: 699740  HIT %:     0  MISS %:   100  AVERAGE MISS PENALTY: 444.836
LLC7 WRITEBACK ACCESS: 64449  HIT: 44821  MISS: 19628  HIT %: 69.5449  MISS %: 30.4551  AVERAGE MISS PENALTY: 0
LLC7 PREFETCH  REQUESTED:     0  ISSUED:     0  USEFUL:     0  USELESS: 5626302
 USEFUL LOAD PREFETCHES:          0 PREFETCH ISSUED TO LOWER LEVEL:    5623527  ACCURACY: 0
 TIMELY PREFETCHES:          0 LATE PREFETCHES: 0 DROPPED PREFETCHES: 0
LLC7 AVERAGE MISS LATENCY: 432.716 cycles
ROI Average ROB Stall Cycles:	15.0444
ROI Total ROB Stalls Cycles:	422687554
ROI TOTAL ROB counter      :	28096070
ROI Average Load ROB Stall Cycles:	49.1272
ROI Total Load ROB Stalls Cycle  :	283295845
ROI Total Load ROB stalls Counter:	5766577
Major fault: 0 Minor fault: 99221








Interconnect Stats 
LINK 0 BW : 0LINK 1 BW : 0LINK 2 BW : 0LINK 3 BW : 0LINK 4 BW : 0LINK 5 BW : 0LINK 6 BW : 0LINK 7 BW : 0
DRAM Statistics
 CHANNEL 0
 RQ ROW_BUFFER_HIT: 10317876  ROW_BUFFER_MISS: 12177401
 DBUS_CONGESTED: 15107042
 WQ ROW_BUFFER_HIT: 169215  ROW_BUFFER_MISS: 1888608  FULL:     0

 CHANNEL 1
 RQ ROW_BUFFER_HIT: 10235645  ROW_BUFFER_MISS: 12261330
 DBUS_CONGESTED: 15107042
 WQ ROW_BUFFER_HIT: 170776  ROW_BUFFER_MISS: 1886889  FULL:     0

 AVG_CONGESTED_CYCLE: 5
DRAM PAGES: 2097152
Allocated PAGES: 795898
L2C destructor called
L1D destructor called
L1I destructor called
STLB destructor called
DTLB destructor called
ITLB destructor called
L2C destructor called
L1D destructor called
L1I destructor called
STLB destructor called
DTLB destructor called
ITLB destructor called
L2C destructor called
L1D destructor called
L1I destructor called
STLB destructor called
DTLB destructor called
ITLB destructor called
L2C destructor called
L1D destructor called
L1I destructor called
STLB destructor called
DTLB destructor called
ITLB destructor called
L2C destructor called
L1D destructor called
L1I destructor called
STLB destructor called
DTLB destructor called
ITLB destructor called
L2C destructor called
L1D destructor called
L1I destructor called
STLB destructor called
DTLB destructor called
ITLB destructor called
L2C destructor called
L1D destructor called
L1I destructor called
STLB destructor called
DTLB destructor called
ITLB destructor called
L2C destructor called
L1D destructor called
L1I destructor called
STLB destructor called
DTLB destructor called
ITLB destructor called
