
*** ChampSim Multicore Out-of-Order Simulator ***

Warmup Instructions: 200000000
Simulation Instructions: 200000000
Number of CPUs: 8
threads:1

L1I Configuration:
L1I_SET:64
L1I_WAY:8
L1I_RQ_SIZE:64
L1I_WQ_SIZE:64
L1I_PQ_SIZE:8
L1I_MSHR_SIZE:8

L1D Configuration:
L1D_SET:64
L1D_WAY:12
L1D_RQ_SIZE:64
L1D_WQ_SIZE:64
L1D_PQ_SIZE:8
L1D_MSHR_SIZE:16

L2C Configuration:
L2C_SET:1024
L2C_WAY:8
L2C_RQ_SIZE:32
L2C_WQ_SIZE:32
L2C_PQ_SIZE:16
L2C_MSHR_SIZE:32

LLC Configuration:
LLC_SET:2048
LLC_WAY:16
LLC SLICES:8
LLC_RQ_SIZE:64
LLC_WQ_SIZE:64
LLC_PQ_SIZE:32
LLC_MSHR_SIZE:64

Interconnect OFF
Attacker deprioritize is: OFF
Off-chip DRAM Size: 8192 MB Channels: 2 Width: 64-bit Data Rate: 3200 MT/s
PAGE SIZE in KB: 4.000000 
PAGE SIZE in MB: 0.003906 
PAGE offset in bits: 12 
CEASER-S_LLC:0
MIRAGE : 1
CEASER_LATENCY:3
REMAP : OFF
Partitions : 1
Multi-Step : OFF
BFS : OFF

CPU 0 runs /home/anubhav/spec_2017/605.mcf_s-472B.champsimtrace.xz
CPU 1 runs /home/anubhav/spec_2017/605.mcf_s-472B.champsimtrace.xz
CPU 2 runs /home/anubhav/spec_2017/605.mcf_s-472B.champsimtrace.xz
CPU 3 runs /home/anubhav/spec_2017/605.mcf_s-472B.champsimtrace.xz
CPU 4 runs /home/anubhav/spec_2017/605.mcf_s-472B.champsimtrace.xz
CPU 5 runs /home/anubhav/spec_2017/605.mcf_s-472B.champsimtrace.xz
CPU 6 runs /home/anubhav/spec_2017/605.mcf_s-472B.champsimtrace.xz
CPU 7 runs /home/anubhav/spec_2017/605.mcf_s-472B.champsimtrace.xz
CPU 0 Bimodal branch predictor
Initialize Hawkeye state
Initialize Hawkeye state
Initialize Hawkeye state
Initialize Hawkeye state
Initialize Hawkeye state
Initialize Hawkeye state
Initialize Hawkeye state
Initialize Hawkeye state
CPU 1 Bimodal branch predictor
Initialize Hawkeye state
Initialize Hawkeye state
Initialize Hawkeye state
Initialize Hawkeye state
Initialize Hawkeye state
Initialize Hawkeye state
Initialize Hawkeye state
Initialize Hawkeye state
CPU 2 Bimodal branch predictor
Initialize Hawkeye state
Initialize Hawkeye state
Initialize Hawkeye state
Initialize Hawkeye state
Initialize Hawkeye state
Initialize Hawkeye state
Initialize Hawkeye state
Initialize Hawkeye state
CPU 3 Bimodal branch predictor
Initialize Hawkeye state
Initialize Hawkeye state
Initialize Hawkeye state
Initialize Hawkeye state
Initialize Hawkeye state
Initialize Hawkeye state
Initialize Hawkeye state
Initialize Hawkeye state
CPU 4 Bimodal branch predictor
Initialize Hawkeye state
Initialize Hawkeye state
Initialize Hawkeye state
Initialize Hawkeye state
Initialize Hawkeye state
Initialize Hawkeye state
Initialize Hawkeye state
Initialize Hawkeye state
CPU 5 Bimodal branch predictor
Initialize Hawkeye state
Initialize Hawkeye state
Initialize Hawkeye state
Initialize Hawkeye state
Initialize Hawkeye state
Initialize Hawkeye state
Initialize Hawkeye state
Initialize Hawkeye state
CPU 6 Bimodal branch predictor
Initialize Hawkeye state
Initialize Hawkeye state
Initialize Hawkeye state
Initialize Hawkeye state
Initialize Hawkeye state
Initialize Hawkeye state
Initialize Hawkeye state
Initialize Hawkeye state
CPU 7 Bimodal branch predictor
Initialize Hawkeye state
Initialize Hawkeye state
Initialize Hawkeye state
Initialize Hawkeye state
Initialize Hawkeye state
Initialize Hawkeye state
Initialize Hawkeye state
Initialize Hawkeye state
Heartbeat CPU 2 instructions: 10000000 cycles: 5539299 heartbeat IPC: 1.80528 cumulative IPC: 1.80528 (Simulation time: 0 hr 32 min 25 sec) 
 Total Blocks : 262144 Invalid Blocks : 10
Heartbeat CPU 4 instructions: 10000000 cycles: 5539317 heartbeat IPC: 1.80528 cumulative IPC: 1.80528 (Simulation time: 0 hr 32 min 25 sec) 
 Total Blocks : 262144 Invalid Blocks : 10
Heartbeat CPU 1 instructions: 10000000 cycles: 5539319 heartbeat IPC: 1.80528 cumulative IPC: 1.80528 (Simulation time: 0 hr 32 min 25 sec) 
 Total Blocks : 262144 Invalid Blocks : 10
Heartbeat CPU 0 instructions: 10000000 cycles: 5539327 heartbeat IPC: 1.80527 cumulative IPC: 1.80527 (Simulation time: 0 hr 32 min 25 sec) 
 Total Blocks : 262144 Invalid Blocks : 10
Heartbeat CPU 5 instructions: 10000000 cycles: 5539383 heartbeat IPC: 1.80526 cumulative IPC: 1.80526 (Simulation time: 0 hr 32 min 25 sec) 
 Total Blocks : 262144 Invalid Blocks : 10
Heartbeat CPU 3 instructions: 10000000 cycles: 5539998 heartbeat IPC: 1.80505 cumulative IPC: 1.80505 (Simulation time: 0 hr 32 min 25 sec) 
 Total Blocks : 262144 Invalid Blocks : 10
Heartbeat CPU 6 instructions: 10000000 cycles: 5540375 heartbeat IPC: 1.80493 cumulative IPC: 1.80493 (Simulation time: 0 hr 32 min 26 sec) 
 Total Blocks : 262144 Invalid Blocks : 10
Heartbeat CPU 7 instructions: 10000000 cycles: 5540503 heartbeat IPC: 1.80489 cumulative IPC: 1.80489 (Simulation time: 0 hr 32 min 26 sec) 
 Total Blocks : 262144 Invalid Blocks : 10
Heartbeat CPU 1 instructions: 20000003 cycles: 11104547 heartbeat IPC: 1.79687 cumulative IPC: 1.80106 (Simulation time: 1 hr 11 min 32 sec) 
 Total Blocks : 262144 Invalid Blocks : 0
Heartbeat CPU 2 instructions: 20000003 cycles: 11104861 heartbeat IPC: 1.79676 cumulative IPC: 1.80101 (Simulation time: 1 hr 11 min 33 sec) 
 Total Blocks : 262144 Invalid Blocks : 0
Heartbeat CPU 7 instructions: 20000003 cycles: 11106996 heartbeat IPC: 1.79646 cumulative IPC: 1.80067 (Simulation time: 1 hr 11 min 34 sec) 
 Total Blocks : 262144 Invalid Blocks : 0
Heartbeat CPU 0 instructions: 20000003 cycles: 11107268 heartbeat IPC: 1.796 cumulative IPC: 1.80062 (Simulation time: 1 hr 11 min 35 sec) 
 Total Blocks : 262144 Invalid Blocks : 0
Heartbeat CPU 5 instructions: 20000003 cycles: 11107514 heartbeat IPC: 1.79594 cumulative IPC: 1.80058 (Simulation time: 1 hr 11 min 35 sec) 
 Total Blocks : 262144 Invalid Blocks : 0
Heartbeat CPU 4 instructions: 20000003 cycles: 11107562 heartbeat IPC: 1.7959 cumulative IPC: 1.80058 (Simulation time: 1 hr 11 min 35 sec) 
 Total Blocks : 262144 Invalid Blocks : 0
Heartbeat CPU 3 instructions: 20000003 cycles: 11108151 heartbeat IPC: 1.79593 cumulative IPC: 1.80048 (Simulation time: 1 hr 11 min 35 sec) 
 Total Blocks : 262144 Invalid Blocks : 0
Heartbeat CPU 6 instructions: 20000003 cycles: 11109269 heartbeat IPC: 1.79569 cumulative IPC: 1.8003 (Simulation time: 1 hr 11 min 36 sec) 
 Total Blocks : 262144 Invalid Blocks : 0
Heartbeat CPU 1 instructions: 30000000 cycles: 16651898 heartbeat IPC: 1.80266 cumulative IPC: 1.8016 (Simulation time: 1 hr 56 min 9 sec) 
 Total Blocks : 262144 Invalid Blocks : 0
Heartbeat CPU 2 instructions: 30000000 cycles: 16652297 heartbeat IPC: 1.80263 cumulative IPC: 1.80155 (Simulation time: 1 hr 56 min 9 sec) 
 Total Blocks : 262144 Invalid Blocks : 0
Heartbeat CPU 0 instructions: 30000000 cycles: 16654260 heartbeat IPC: 1.80278 cumulative IPC: 1.80134 (Simulation time: 1 hr 56 min 10 sec) 
 Total Blocks : 262144 Invalid Blocks : 0
Heartbeat CPU 4 instructions: 30000000 cycles: 16655320 heartbeat IPC: 1.80253 cumulative IPC: 1.80123 (Simulation time: 1 hr 56 min 10 sec) 
 Total Blocks : 262144 Invalid Blocks : 0
Heartbeat CPU 7 instructions: 30000000 cycles: 16655335 heartbeat IPC: 1.80234 cumulative IPC: 1.80122 (Simulation time: 1 hr 56 min 10 sec) 
 Total Blocks : 262144 Invalid Blocks : 0
Heartbeat CPU 5 instructions: 30000000 cycles: 16655419 heartbeat IPC: 1.80248 cumulative IPC: 1.80122 (Simulation time: 1 hr 56 min 10 sec) 
 Total Blocks : 262144 Invalid Blocks : 0
Heartbeat CPU 3 instructions: 30000000 cycles: 16655527 heartbeat IPC: 1.80265 cumulative IPC: 1.8012 (Simulation time: 1 hr 56 min 10 sec) 
 Total Blocks : 262144 Invalid Blocks : 0
Heartbeat CPU 6 instructions: 30000000 cycles: 16657442 heartbeat IPC: 1.80239 cumulative IPC: 1.801 (Simulation time: 1 hr 56 min 11 sec) 
 Total Blocks : 262144 Invalid Blocks : 0
Heartbeat CPU 1 instructions: 40000000 cycles: 22196402 heartbeat IPC: 1.80359 cumulative IPC: 1.80209 (Simulation time: 2 hr 51 min 11 sec) 
 Total Blocks : 262144 Invalid Blocks : 0
Heartbeat CPU 2 instructions: 40000000 cycles: 22197241 heartbeat IPC: 1.80344 cumulative IPC: 1.80203 (Simulation time: 2 hr 51 min 12 sec) 
 Total Blocks : 262144 Invalid Blocks : 0
Heartbeat CPU 0 instructions: 40000000 cycles: 22198402 heartbeat IPC: 1.80371 cumulative IPC: 1.80193 (Simulation time: 2 hr 51 min 14 sec) 
 Total Blocks : 262144 Invalid Blocks : 0
Heartbeat CPU 3 instructions: 40000000 cycles: 22199543 heartbeat IPC: 1.80375 cumulative IPC: 1.80184 (Simulation time: 2 hr 51 min 16 sec) 
 Total Blocks : 262144 Invalid Blocks : 0
Heartbeat CPU 4 instructions: 40000000 cycles: 22199656 heartbeat IPC: 1.80364 cumulative IPC: 1.80183 (Simulation time: 2 hr 51 min 16 sec) 
 Total Blocks : 262144 Invalid Blocks : 0
Heartbeat CPU 5 instructions: 40000000 cycles: 22200204 heartbeat IPC: 1.8035 cumulative IPC: 1.80179 (Simulation time: 2 hr 51 min 18 sec) 
 Total Blocks : 262144 Invalid Blocks : 0
Heartbeat CPU 7 instructions: 40000000 cycles: 22200547 heartbeat IPC: 1.80336 cumulative IPC: 1.80176 (Simulation time: 2 hr 51 min 18 sec) 
 Total Blocks : 262144 Invalid Blocks : 0
Heartbeat CPU 6 instructions: 40000000 cycles: 22202521 heartbeat IPC: 1.8034 cumulative IPC: 1.8016 (Simulation time: 2 hr 51 min 22 sec) 
 Total Blocks : 262144 Invalid Blocks : 0
Heartbeat CPU 1 instructions: 50000000 cycles: 27722609 heartbeat IPC: 1.80956 cumulative IPC: 1.80358 (Simulation time: 3 hr 40 min 8 sec) 
 Total Blocks : 262144 Invalid Blocks : 0
Heartbeat CPU 2 instructions: 50000000 cycles: 27723646 heartbeat IPC: 1.80949 cumulative IPC: 1.80351 (Simulation time: 3 hr 40 min 8 sec) 
 Total Blocks : 262144 Invalid Blocks : 0
Heartbeat CPU 0 instructions: 50000000 cycles: 27724497 heartbeat IPC: 1.8096 cumulative IPC: 1.80346 (Simulation time: 3 hr 40 min 9 sec) 
 Total Blocks : 262144 Invalid Blocks : 0
Heartbeat CPU 4 instructions: 50000000 cycles: 27726019 heartbeat IPC: 1.80951 cumulative IPC: 1.80336 (Simulation time: 3 hr 40 min 9 sec) 
 Total Blocks : 262144 Invalid Blocks : 0
Heartbeat CPU 3 instructions: 50000003 cycles: 27726278 heartbeat IPC: 1.80939 cumulative IPC: 1.80334 (Simulation time: 3 hr 40 min 9 sec) 
 Total Blocks : 262144 Invalid Blocks : 0
Heartbeat CPU 5 instructions: 50000000 cycles: 27726740 heartbeat IPC: 1.80945 cumulative IPC: 1.80331 (Simulation time: 3 hr 40 min 9 sec) 
 Total Blocks : 262144 Invalid Blocks : 0
Heartbeat CPU 7 instructions: 50000000 cycles: 27727362 heartbeat IPC: 1.80936 cumulative IPC: 1.80327 (Simulation time: 3 hr 40 min 10 sec) 
 Total Blocks : 262144 Invalid Blocks : 0
Heartbeat CPU 6 instructions: 50000000 cycles: 27728966 heartbeat IPC: 1.80948 cumulative IPC: 1.80317 (Simulation time: 3 hr 40 min 10 sec) 
 Total Blocks : 262144 Invalid Blocks : 0
Heartbeat CPU 1 instructions: 60000001 cycles: 33234420 heartbeat IPC: 1.81429 cumulative IPC: 1.80536 (Simulation time: 4 hr 25 min 54 sec) 
 Total Blocks : 262144 Invalid Blocks : 0
Heartbeat CPU 2 instructions: 60000001 cycles: 33235369 heartbeat IPC: 1.81431 cumulative IPC: 1.80531 (Simulation time: 4 hr 25 min 56 sec) 
 Total Blocks : 262144 Invalid Blocks : 0
Heartbeat CPU 0 instructions: 60000001 cycles: 33236234 heartbeat IPC: 1.81431 cumulative IPC: 1.80526 (Simulation time: 4 hr 25 min 57 sec) 
 Total Blocks : 262144 Invalid Blocks : 0
Heartbeat CPU 4 instructions: 60000001 cycles: 33237697 heartbeat IPC: 1.81433 cumulative IPC: 1.80518 (Simulation time: 4 hr 25 min 58 sec) 
 Total Blocks : 262144 Invalid Blocks : 0
Heartbeat CPU 3 instructions: 60000001 cycles: 33237702 heartbeat IPC: 1.81441 cumulative IPC: 1.80518 (Simulation time: 4 hr 25 min 58 sec) 
 Total Blocks : 262144 Invalid Blocks : 0
Heartbeat CPU 5 instructions: 60000001 cycles: 33237995 heartbeat IPC: 1.81447 cumulative IPC: 1.80516 (Simulation time: 4 hr 25 min 58 sec) 
 Total Blocks : 262144 Invalid Blocks : 0
Heartbeat CPU 7 instructions: 60000001 cycles: 33239244 heartbeat IPC: 1.81426 cumulative IPC: 1.8051 (Simulation time: 4 hr 26 min 0 sec) 
 Total Blocks : 262144 Invalid Blocks : 0
Heartbeat CPU 6 instructions: 60000001 cycles: 33240945 heartbeat IPC: 1.81423 cumulative IPC: 1.805 (Simulation time: 4 hr 26 min 2 sec) 
 Total Blocks : 262144 Invalid Blocks : 0
Heartbeat CPU 1 instructions: 70000002 cycles: 38794004 heartbeat IPC: 1.7987 cumulative IPC: 1.8044 (Simulation time: 5 hr 19 min 3 sec) 
 Total Blocks : 262144 Invalid Blocks : 0
Heartbeat CPU 0 instructions: 70000002 cycles: 38795099 heartbeat IPC: 1.79893 cumulative IPC: 1.80435 (Simulation time: 5 hr 19 min 6 sec) 
 Total Blocks : 262144 Invalid Blocks : 0
Heartbeat CPU 2 instructions: 70000002 cycles: 38795460 heartbeat IPC: 1.79853 cumulative IPC: 1.80433 (Simulation time: 5 hr 19 min 7 sec) 
 Total Blocks : 262144 Invalid Blocks : 0
Heartbeat CPU 4 instructions: 70000002 cycles: 38797355 heartbeat IPC: 1.79867 cumulative IPC: 1.80425 (Simulation time: 5 hr 19 min 14 sec) 
 Total Blocks : 262144 Invalid Blocks : 0
Heartbeat CPU 3 instructions: 70000002 cycles: 38797584 heartbeat IPC: 1.7986 cumulative IPC: 1.80424 (Simulation time: 5 hr 19 min 14 sec) 
 Total Blocks : 262144 Invalid Blocks : 0
Heartbeat CPU 5 instructions: 70000002 cycles: 38797986 heartbeat IPC: 1.79856 cumulative IPC: 1.80422 (Simulation time: 5 hr 19 min 15 sec) 
 Total Blocks : 262144 Invalid Blocks : 0
Heartbeat CPU 7 instructions: 70000002 cycles: 38799316 heartbeat IPC: 1.79854 cumulative IPC: 1.80416 (Simulation time: 5 hr 19 min 18 sec) 
 Total Blocks : 262144 Invalid Blocks : 0
Heartbeat CPU 6 instructions: 70000002 cycles: 38800587 heartbeat IPC: 1.79868 cumulative IPC: 1.8041 (Simulation time: 5 hr 19 min 21 sec) 
 Total Blocks : 262144 Invalid Blocks : 0
Heartbeat CPU 1 instructions: 80000002 cycles: 44367627 heartbeat IPC: 1.79417 cumulative IPC: 1.80312 (Simulation time: 6 hr 18 min 32 sec) 
 Total Blocks : 262144 Invalid Blocks : 0
Heartbeat CPU 0 instructions: 80000002 cycles: 44367995 heartbeat IPC: 1.7944 cumulative IPC: 1.8031 (Simulation time: 6 hr 18 min 32 sec) 
 Total Blocks : 262144 Invalid Blocks : 0
Heartbeat CPU 2 instructions: 80000002 cycles: 44368706 heartbeat IPC: 1.79429 cumulative IPC: 1.80307 (Simulation time: 6 hr 18 min 32 sec) 
 Total Blocks : 262144 Invalid Blocks : 0
Heartbeat CPU 4 instructions: 80000002 cycles: 44370839 heartbeat IPC: 1.79421 cumulative IPC: 1.80299 (Simulation time: 6 hr 18 min 33 sec) 
 Total Blocks : 262144 Invalid Blocks : 0
Heartbeat CPU 3 instructions: 80000002 cycles: 44371027 heartbeat IPC: 1.79422 cumulative IPC: 1.80298 (Simulation time: 6 hr 18 min 33 sec) 
 Total Blocks : 262144 Invalid Blocks : 0
Heartbeat CPU 5 instructions: 80000002 cycles: 44371137 heartbeat IPC: 1.79432 cumulative IPC: 1.80297 (Simulation time: 6 hr 18 min 33 sec) 
 Total Blocks : 262144 Invalid Blocks : 0
Heartbeat CPU 7 instructions: 80000002 cycles: 44373173 heartbeat IPC: 1.79409 cumulative IPC: 1.80289 (Simulation time: 6 hr 18 min 34 sec) 
 Total Blocks : 262144 Invalid Blocks : 0
Heartbeat CPU 6 instructions: 80000002 cycles: 44374459 heartbeat IPC: 1.79409 cumulative IPC: 1.80284 (Simulation time: 6 hr 18 min 35 sec) 
 Total Blocks : 262144 Invalid Blocks : 0
Heartbeat CPU 0 instructions: 90000000 cycles: 49884921 heartbeat IPC: 1.8126 cumulative IPC: 1.80415 (Simulation time: 7 hr 11 min 17 sec) 
 Total Blocks : 262144 Invalid Blocks : 0
Heartbeat CPU 1 instructions: 90000000 cycles: 49885913 heartbeat IPC: 1.81216 cumulative IPC: 1.80412 (Simulation time: 7 hr 11 min 18 sec) 
 Total Blocks : 262144 Invalid Blocks : 0
Heartbeat CPU 2 instructions: 90000000 cycles: 49886293 heartbeat IPC: 1.81239 cumulative IPC: 1.8041 (Simulation time: 7 hr 11 min 18 sec) 
 Total Blocks : 262144 Invalid Blocks : 0
Heartbeat CPU 5 instructions: 90000000 cycles: 49888347 heartbeat IPC: 1.81251 cumulative IPC: 1.80403 (Simulation time: 7 hr 11 min 20 sec) 
 Total Blocks : 262144 Invalid Blocks : 0
Heartbeat CPU 4 instructions: 90000000 cycles: 49888688 heartbeat IPC: 1.8123 cumulative IPC: 1.80402 (Simulation time: 7 hr 11 min 20 sec) 
 Total Blocks : 262144 Invalid Blocks : 0
Heartbeat CPU 3 instructions: 90000000 cycles: 49888932 heartbeat IPC: 1.81228 cumulative IPC: 1.80401 (Simulation time: 7 hr 11 min 20 sec) 
 Total Blocks : 262144 Invalid Blocks : 0
Heartbeat CPU 7 instructions: 90000000 cycles: 49891525 heartbeat IPC: 1.81213 cumulative IPC: 1.80391 (Simulation time: 7 hr 11 min 21 sec) 
 Total Blocks : 262144 Invalid Blocks : 0
Heartbeat CPU 6 instructions: 90000000 cycles: 49893051 heartbeat IPC: 1.81206 cumulative IPC: 1.80386 (Simulation time: 7 hr 11 min 22 sec) 
 Total Blocks : 262144 Invalid Blocks : 0
Heartbeat CPU 0 instructions: 100000001 cycles: 55413014 heartbeat IPC: 1.80894 cumulative IPC: 1.80463 (Simulation time: 8 hr 9 min 57 sec) 
 Total Blocks : 262144 Invalid Blocks : 0
Heartbeat CPU 1 instructions: 100000001 cycles: 55414088 heartbeat IPC: 1.80892 cumulative IPC: 1.8046 (Simulation time: 8 hr 9 min 57 sec) 
 Total Blocks : 262144 Invalid Blocks : 0
Heartbeat CPU 2 instructions: 100000001 cycles: 55414782 heartbeat IPC: 1.80881 cumulative IPC: 1.80457 (Simulation time: 8 hr 9 min 57 sec) 
 Total Blocks : 262144 Invalid Blocks : 0
Heartbeat CPU 5 instructions: 100000001 cycles: 55415956 heartbeat IPC: 1.8091 cumulative IPC: 1.80453 (Simulation time: 8 hr 9 min 58 sec) 
 Total Blocks : 262144 Invalid Blocks : 0
Heartbeat CPU 3 instructions: 100000001 cycles: 55416656 heartbeat IPC: 1.80906 cumulative IPC: 1.80451 (Simulation time: 8 hr 9 min 58 sec) 
 Total Blocks : 262144 Invalid Blocks : 0
Heartbeat CPU 4 instructions: 100000001 cycles: 55416942 heartbeat IPC: 1.80889 cumulative IPC: 1.8045 (Simulation time: 8 hr 9 min 58 sec) 
 Total Blocks : 262144 Invalid Blocks : 0
Heartbeat CPU 7 instructions: 100000001 cycles: 55420012 heartbeat IPC: 1.80881 cumulative IPC: 1.8044 (Simulation time: 8 hr 10 min 0 sec) 
 Total Blocks : 262144 Invalid Blocks : 0
Heartbeat CPU 6 instructions: 100000001 cycles: 55421667 heartbeat IPC: 1.80877 cumulative IPC: 1.80435 (Simulation time: 8 hr 10 min 1 sec) 
 Total Blocks : 262144 Invalid Blocks : 0
Heartbeat CPU 0 instructions: 110000000 cycles: 60943660 heartbeat IPC: 1.80811 cumulative IPC: 1.80495 (Simulation time: 9 hr 21 min 57 sec) 
 Total Blocks : 262144 Invalid Blocks : 0
Heartbeat CPU 1 instructions: 110000000 cycles: 60947335 heartbeat IPC: 1.80726 cumulative IPC: 1.80484 (Simulation time: 9 hr 21 min 59 sec) 
 Total Blocks : 262144 Invalid Blocks : 0
Heartbeat CPU 5 instructions: 110000000 cycles: 60948546 heartbeat IPC: 1.80747 cumulative IPC: 1.8048 (Simulation time: 9 hr 21 min 59 sec) 
 Total Blocks : 262144 Invalid Blocks : 0
Heartbeat CPU 2 instructions: 110000000 cycles: 60948677 heartbeat IPC: 1.80705 cumulative IPC: 1.8048 (Simulation time: 9 hr 21 min 59 sec) 
 Total Blocks : 262144 Invalid Blocks : 0
Heartbeat CPU 4 instructions: 110000000 cycles: 60949395 heartbeat IPC: 1.80752 cumulative IPC: 1.80478 (Simulation time: 9 hr 22 min 0 sec) 
 Total Blocks : 262144 Invalid Blocks : 0
Heartbeat CPU 3 instructions: 110000000 cycles: 60951559 heartbeat IPC: 1.80672 cumulative IPC: 1.80471 (Simulation time: 9 hr 22 min 1 sec) 
 Total Blocks : 262144 Invalid Blocks : 0
Heartbeat CPU 7 instructions: 110000000 cycles: 60952683 heartbeat IPC: 1.80745 cumulative IPC: 1.80468 (Simulation time: 9 hr 22 min 1 sec) 
 Total Blocks : 262144 Invalid Blocks : 0
Heartbeat CPU 6 instructions: 110000000 cycles: 60956829 heartbeat IPC: 1.80663 cumulative IPC: 1.80456 (Simulation time: 9 hr 22 min 3 sec) 
 Total Blocks : 262144 Invalid Blocks : 0
Heartbeat CPU 0 instructions: 120000001 cycles: 66498556 heartbeat IPC: 1.80021 cumulative IPC: 1.80455 (Simulation time: 10 hr 43 min 56 sec) 
 Total Blocks : 262144 Invalid Blocks : 0
Heartbeat CPU 1 instructions: 120000001 cycles: 66501620 heartbeat IPC: 1.80041 cumulative IPC: 1.80447 (Simulation time: 10 hr 43 min 58 sec) 
 Total Blocks : 262144 Invalid Blocks : 0
Heartbeat CPU 2 instructions: 120000001 cycles: 66503187 heartbeat IPC: 1.80034 cumulative IPC: 1.80442 (Simulation time: 10 hr 43 min 59 sec) 
 Total Blocks : 262144 Invalid Blocks : 0
Heartbeat CPU 4 instructions: 120000001 cycles: 66504273 heartbeat IPC: 1.80022 cumulative IPC: 1.8044 (Simulation time: 10 hr 43 min 59 sec) 
 Total Blocks : 262144 Invalid Blocks : 0
Heartbeat CPU 5 instructions: 120000001 cycles: 66504307 heartbeat IPC: 1.79993 cumulative IPC: 1.80439 (Simulation time: 10 hr 43 min 59 sec) 
 Total Blocks : 262144 Invalid Blocks : 0
Heartbeat CPU 3 instructions: 120000001 cycles: 66506231 heartbeat IPC: 1.80029 cumulative IPC: 1.80434 (Simulation time: 10 hr 44 min 0 sec) 
 Total Blocks : 262144 Invalid Blocks : 0
Heartbeat CPU 7 instructions: 120000001 cycles: 66507543 heartbeat IPC: 1.80023 cumulative IPC: 1.80431 (Simulation time: 10 hr 44 min 0 sec) 
 Total Blocks : 262144 Invalid Blocks : 0
Heartbeat CPU 6 instructions: 120000001 cycles: 66511505 heartbeat IPC: 1.80029 cumulative IPC: 1.8042 (Simulation time: 10 hr 44 min 2 sec) 
 Total Blocks : 262144 Invalid Blocks : 0
Heartbeat CPU 0 instructions: 130000002 cycles: 72018481 heartbeat IPC: 1.81162 cumulative IPC: 1.80509 (Simulation time: 11 hr 52 min 10 sec) 
 Total Blocks : 262144 Invalid Blocks : 0
Heartbeat CPU 1 instructions: 130000002 cycles: 72021855 heartbeat IPC: 1.81152 cumulative IPC: 1.80501 (Simulation time: 11 hr 52 min 13 sec) 
 Total Blocks : 262144 Invalid Blocks : 0
Heartbeat CPU 2 instructions: 130000002 cycles: 72023464 heartbeat IPC: 1.8115 cumulative IPC: 1.80497 (Simulation time: 11 hr 52 min 14 sec) 
 Total Blocks : 262144 Invalid Blocks : 0
Heartbeat CPU 4 instructions: 130000002 cycles: 72024359 heartbeat IPC: 1.81157 cumulative IPC: 1.80494 (Simulation time: 11 hr 52 min 15 sec) 
 Total Blocks : 262144 Invalid Blocks : 0
Heartbeat CPU 5 instructions: 130000002 cycles: 72024910 heartbeat IPC: 1.8114 cumulative IPC: 1.80493 (Simulation time: 11 hr 52 min 16 sec) 
 Total Blocks : 262144 Invalid Blocks : 0
Heartbeat CPU 3 instructions: 130000002 cycles: 72026612 heartbeat IPC: 1.81147 cumulative IPC: 1.80489 (Simulation time: 11 hr 52 min 17 sec) 
 Total Blocks : 262144 Invalid Blocks : 0
Heartbeat CPU 7 instructions: 130000002 cycles: 72028537 heartbeat IPC: 1.81127 cumulative IPC: 1.80484 (Simulation time: 11 hr 52 min 18 sec) 
 Total Blocks : 262144 Invalid Blocks : 0
Heartbeat CPU 6 instructions: 130000002 cycles: 72032370 heartbeat IPC: 1.81131 cumulative IPC: 1.80474 (Simulation time: 11 hr 52 min 21 sec) 
 Total Blocks : 262144 Invalid Blocks : 0
Heartbeat CPU 0 instructions: 140000002 cycles: 77573313 heartbeat IPC: 1.80023 cumulative IPC: 1.80474 (Simulation time: 13 hr 3 min 12 sec) 
 Total Blocks : 262144 Invalid Blocks : 0
Heartbeat CPU 1 instructions: 140000002 cycles: 77577881 heartbeat IPC: 1.79985 cumulative IPC: 1.80464 (Simulation time: 13 hr 3 min 14 sec) 
 Total Blocks : 262144 Invalid Blocks : 0
Heartbeat CPU 2 instructions: 140000002 cycles: 77579211 heartbeat IPC: 1.79994 cumulative IPC: 1.80461 (Simulation time: 13 hr 3 min 14 sec) 
 Total Blocks : 262144 Invalid Blocks : 0
Heartbeat CPU 4 instructions: 140000002 cycles: 77580170 heartbeat IPC: 1.79992 cumulative IPC: 1.80458 (Simulation time: 13 hr 3 min 15 sec) 
 Total Blocks : 262144 Invalid Blocks : 0
Heartbeat CPU 5 instructions: 140000002 cycles: 77581174 heartbeat IPC: 1.79977 cumulative IPC: 1.80456 (Simulation time: 13 hr 3 min 15 sec) 
 Total Blocks : 262144 Invalid Blocks : 0
Heartbeat CPU 3 instructions: 140000002 cycles: 77582538 heartbeat IPC: 1.79988 cumulative IPC: 1.80453 (Simulation time: 13 hr 3 min 15 sec) 
 Total Blocks : 262144 Invalid Blocks : 0
Heartbeat CPU 7 instructions: 140000002 cycles: 77585751 heartbeat IPC: 1.79946 cumulative IPC: 1.80446 (Simulation time: 13 hr 3 min 18 sec) 
 Total Blocks : 262144 Invalid Blocks : 0
Heartbeat CPU 6 instructions: 140000002 cycles: 77588784 heartbeat IPC: 1.79972 cumulative IPC: 1.80438 (Simulation time: 13 hr 3 min 20 sec) 
 Total Blocks : 262144 Invalid Blocks : 0
Heartbeat CPU 0 instructions: 150000001 cycles: 83083582 heartbeat IPC: 1.81479 cumulative IPC: 1.80541 (Simulation time: 14 hr 6 min 33 sec) 
 Total Blocks : 262144 Invalid Blocks : 0
Heartbeat CPU 1 instructions: 150000001 cycles: 83088304 heartbeat IPC: 1.81474 cumulative IPC: 1.80531 (Simulation time: 14 hr 6 min 37 sec) 
 Total Blocks : 262144 Invalid Blocks : 0
Heartbeat CPU 2 instructions: 150000001 cycles: 83089939 heartbeat IPC: 1.81464 cumulative IPC: 1.80527 (Simulation time: 14 hr 6 min 39 sec) 
 Total Blocks : 262144 Invalid Blocks : 0
Heartbeat CPU 4 instructions: 150000001 cycles: 83090884 heartbeat IPC: 1.81465 cumulative IPC: 1.80525 (Simulation time: 14 hr 6 min 40 sec) 
 Total Blocks : 262144 Invalid Blocks : 0
Heartbeat CPU 5 instructions: 150000001 cycles: 83092239 heartbeat IPC: 1.81453 cumulative IPC: 1.80522 (Simulation time: 14 hr 6 min 42 sec) 
 Total Blocks : 262144 Invalid Blocks : 0
Heartbeat CPU 3 instructions: 150000001 cycles: 83093454 heartbeat IPC: 1.81458 cumulative IPC: 1.8052 (Simulation time: 14 hr 6 min 43 sec) 
 Total Blocks : 262144 Invalid Blocks : 0
Heartbeat CPU 7 instructions: 150000001 cycles: 83097108 heartbeat IPC: 1.81444 cumulative IPC: 1.80512 (Simulation time: 14 hr 6 min 46 sec) 
 Total Blocks : 262144 Invalid Blocks : 0
Heartbeat CPU 6 instructions: 150000001 cycles: 83099801 heartbeat IPC: 1.81455 cumulative IPC: 1.80506 (Simulation time: 14 hr 6 min 49 sec) 
 Total Blocks : 262144 Invalid Blocks : 0
Heartbeat CPU 0 instructions: 160000002 cycles: 88676938 heartbeat IPC: 1.78784 cumulative IPC: 1.8043 (Simulation time: 15 hr 32 min 54 sec) 
 Total Blocks : 262144 Invalid Blocks : 0
Heartbeat CPU 1 instructions: 160000002 cycles: 88682540 heartbeat IPC: 1.78755 cumulative IPC: 1.80419 (Simulation time: 15 hr 32 min 55 sec) 
 Total Blocks : 262144 Invalid Blocks : 0
Heartbeat CPU 2 instructions: 160000002 cycles: 88683801 heartbeat IPC: 1.78767 cumulative IPC: 1.80416 (Simulation time: 15 hr 32 min 56 sec) 
 Total Blocks : 262144 Invalid Blocks : 0
Heartbeat CPU 4 instructions: 160000002 cycles: 88684803 heartbeat IPC: 1.78766 cumulative IPC: 1.80414 (Simulation time: 15 hr 32 min 56 sec) 
 Total Blocks : 262144 Invalid Blocks : 0
Heartbeat CPU 5 instructions: 160000002 cycles: 88686813 heartbeat IPC: 1.78745 cumulative IPC: 1.8041 (Simulation time: 15 hr 32 min 56 sec) 
 Total Blocks : 262144 Invalid Blocks : 0
Heartbeat CPU 3 instructions: 160000002 cycles: 88687480 heartbeat IPC: 1.78762 cumulative IPC: 1.80409 (Simulation time: 15 hr 32 min 57 sec) 
 Total Blocks : 262144 Invalid Blocks : 0
Heartbeat CPU 7 instructions: 160000002 cycles: 88692009 heartbeat IPC: 1.78734 cumulative IPC: 1.804 (Simulation time: 15 hr 32 min 58 sec) 
 Total Blocks : 262144 Invalid Blocks : 0
Heartbeat CPU 6 instructions: 160000002 cycles: 88693954 heartbeat IPC: 1.78758 cumulative IPC: 1.80396 (Simulation time: 15 hr 32 min 59 sec) 
 Total Blocks : 262144 Invalid Blocks : 0
Heartbeat CPU 0 instructions: 170000001 cycles: 94257676 heartbeat IPC: 1.79188 cumulative IPC: 1.80357 (Simulation time: 17 hr 2 min 52 sec) 
 Total Blocks : 262144 Invalid Blocks : 0
Heartbeat CPU 1 instructions: 170000001 cycles: 94263228 heartbeat IPC: 1.79189 cumulative IPC: 1.80346 (Simulation time: 17 hr 3 min 3 sec) 
 Total Blocks : 262144 Invalid Blocks : 0
Heartbeat CPU 2 instructions: 170000001 cycles: 94263862 heartbeat IPC: 1.79209 cumulative IPC: 1.80345 (Simulation time: 17 hr 3 min 4 sec) 
 Total Blocks : 262144 Invalid Blocks : 0
Heartbeat CPU 4 instructions: 170000001 cycles: 94264834 heartbeat IPC: 1.7921 cumulative IPC: 1.80343 (Simulation time: 17 hr 3 min 5 sec) 
 Total Blocks : 262144 Invalid Blocks : 0
Heartbeat CPU 3 instructions: 170000001 cycles: 94267762 heartbeat IPC: 1.79202 cumulative IPC: 1.80337 (Simulation time: 17 hr 3 min 8 sec) 
 Total Blocks : 262144 Invalid Blocks : 0
Heartbeat CPU 5 instructions: 170000001 cycles: 94267912 heartbeat IPC: 1.79176 cumulative IPC: 1.80337 (Simulation time: 17 hr 3 min 8 sec) 
 Total Blocks : 262144 Invalid Blocks : 0
Heartbeat CPU 7 instructions: 170000001 cycles: 94273075 heartbeat IPC: 1.79177 cumulative IPC: 1.80327 (Simulation time: 17 hr 3 min 14 sec) 
 Total Blocks : 262144 Invalid Blocks : 0
Heartbeat CPU 6 instructions: 170000001 cycles: 94274043 heartbeat IPC: 1.79209 cumulative IPC: 1.80325 (Simulation time: 17 hr 3 min 16 sec) 
 Total Blocks : 262144 Invalid Blocks : 0
Heartbeat CPU 0 instructions: 180000001 cycles: 99797468 heartbeat IPC: 1.80512 cumulative IPC: 1.80365 (Simulation time: 17 hr 54 min 34 sec) 
 Total Blocks : 262144 Invalid Blocks : 0
Heartbeat CPU 1 instructions: 180000001 cycles: 99801994 heartbeat IPC: 1.80546 cumulative IPC: 1.80357 (Simulation time: 17 hr 54 min 37 sec) 
 Total Blocks : 262144 Invalid Blocks : 0
Heartbeat CPU 2 instructions: 180000001 cycles: 99803889 heartbeat IPC: 1.80505 cumulative IPC: 1.80354 (Simulation time: 17 hr 54 min 38 sec) 
 Total Blocks : 262144 Invalid Blocks : 0
Heartbeat CPU 4 instructions: 180000001 cycles: 99804666 heartbeat IPC: 1.80511 cumulative IPC: 1.80352 (Simulation time: 17 hr 54 min 38 sec) 
 Total Blocks : 262144 Invalid Blocks : 0
Heartbeat CPU 3 instructions: 180000001 cycles: 99807421 heartbeat IPC: 1.80517 cumulative IPC: 1.80347 (Simulation time: 17 hr 54 min 40 sec) 
 Total Blocks : 262144 Invalid Blocks : 0
Heartbeat CPU 5 instructions: 180000001 cycles: 99807776 heartbeat IPC: 1.8051 cumulative IPC: 1.80347 (Simulation time: 17 hr 54 min 41 sec) 
 Total Blocks : 262144 Invalid Blocks : 0
Heartbeat CPU 7 instructions: 180000001 cycles: 99812685 heartbeat IPC: 1.80518 cumulative IPC: 1.80338 (Simulation time: 17 hr 54 min 44 sec) 
 Total Blocks : 262144 Invalid Blocks : 0
Heartbeat CPU 6 instructions: 180000001 cycles: 99813510 heartbeat IPC: 1.80523 cumulative IPC: 1.80336 (Simulation time: 17 hr 54 min 44 sec) 
 Total Blocks : 262144 Invalid Blocks : 0
Heartbeat CPU 0 instructions: 190000001 cycles: 105324830 heartbeat IPC: 1.80918 cumulative IPC: 1.80394 (Simulation time: 19 hr 15 min 34 sec) 
 Total Blocks : 262144 Invalid Blocks : 0
Heartbeat CPU 1 instructions: 190000001 cycles: 105329781 heartbeat IPC: 1.80904 cumulative IPC: 1.80386 (Simulation time: 19 hr 15 min 36 sec) 
 Total Blocks : 262144 Invalid Blocks : 0
Heartbeat CPU 2 instructions: 190000000 cycles: 105331491 heartbeat IPC: 1.8091 cumulative IPC: 1.80383 (Simulation time: 19 hr 15 min 36 sec) 
 Total Blocks : 262144 Invalid Blocks : 0
Heartbeat CPU 4 instructions: 190000000 cycles: 105332238 heartbeat IPC: 1.80911 cumulative IPC: 1.80382 (Simulation time: 19 hr 15 min 37 sec) 
 Total Blocks : 262144 Invalid Blocks : 0
Heartbeat CPU 3 instructions: 190000001 cycles: 105334824 heartbeat IPC: 1.80917 cumulative IPC: 1.80377 (Simulation time: 19 hr 15 min 38 sec) 
 Total Blocks : 262144 Invalid Blocks : 0
Heartbeat CPU 5 instructions: 190000001 cycles: 105335951 heartbeat IPC: 1.80892 cumulative IPC: 1.80375 (Simulation time: 19 hr 15 min 38 sec) 
 Total Blocks : 262144 Invalid Blocks : 0
Heartbeat CPU 7 instructions: 190000001 cycles: 105340619 heartbeat IPC: 1.80899 cumulative IPC: 1.80367 (Simulation time: 19 hr 15 min 40 sec) 
 Total Blocks : 262144 Invalid Blocks : 0
Heartbeat CPU 6 instructions: 190000001 cycles: 105341804 heartbeat IPC: 1.80888 cumulative IPC: 1.80365 (Simulation time: 19 hr 15 min 40 sec) 
 Total Blocks : 262144 Invalid Blocks : 0
Heartbeat CPU 0 instructions: 200000000 cycles: 110870555 heartbeat IPC: 1.80319 cumulative IPC: 1.80391 (Simulation time: 20 hr 19 min 27 sec) 
 Total Blocks : 262144 Invalid Blocks : 0
Heartbeat CPU 1 instructions: 200000000 cycles: 110875494 heartbeat IPC: 1.80319 cumulative IPC: 1.80383 (Simulation time: 20 hr 19 min 29 sec) 
 Total Blocks : 262144 Invalid Blocks : 0
Heartbeat CPU 2 instructions: 200000000 cycles: 110877074 heartbeat IPC: 1.80324 cumulative IPC: 1.8038 (Simulation time: 20 hr 19 min 31 sec) 
 Total Blocks : 262144 Invalid Blocks : 0
Heartbeat CPU 4 instructions: 200000000 cycles: 110877985 heartbeat IPC: 1.80318 cumulative IPC: 1.80378 (Simulation time: 20 hr 19 min 31 sec) 
 Total Blocks : 262144 Invalid Blocks : 0
Heartbeat CPU 3 instructions: 200000000 cycles: 110880873 heartbeat IPC: 1.80309 cumulative IPC: 1.80374 (Simulation time: 20 hr 19 min 33 sec) 
 Total Blocks : 262144 Invalid Blocks : 0
Heartbeat CPU 5 instructions: 200000000 cycles: 110882401 heartbeat IPC: 1.80295 cumulative IPC: 1.80371 (Simulation time: 20 hr 19 min 34 sec) 
 Total Blocks : 262144 Invalid Blocks : 0
Heartbeat CPU 7 instructions: 200000000 cycles: 110887030 heartbeat IPC: 1.80297 cumulative IPC: 1.80364 (Simulation time: 20 hr 19 min 36 sec) 
 Total Blocks : 262144 Invalid Blocks : 0
Heartbeat CPU 6 instructions: 200000000 cycles: 110887896 heartbeat IPC: 1.80307 cumulative IPC: 1.80362 (Simulation time: 20 hr 19 min 37 sec) 
 Total Blocks : 262144 Invalid Blocks : 0

Warmup complete CPU 0 instructions: 200030846 cycles: 110887897 (Simulation time: 20 hr 19 min 37 sec) 
Warmup complete CPU 1 instructions: 200022138 cycles: 110887897 (Simulation time: 20 hr 19 min 37 sec) 
Warmup complete CPU 2 instructions: 200019313 cycles: 110887897 (Simulation time: 20 hr 19 min 37 sec) 
Warmup complete CPU 3 instructions: 200012557 cycles: 110887897 (Simulation time: 20 hr 19 min 37 sec) 
Warmup complete CPU 4 instructions: 200017747 cycles: 110887897 (Simulation time: 20 hr 19 min 37 sec) 
Warmup complete CPU 5 instructions: 200009892 cycles: 110887897 (Simulation time: 20 hr 19 min 37 sec) 
Warmup complete CPU 6 instructions: 200000004 cycles: 110887897 (Simulation time: 20 hr 19 min 37 sec) 
Warmup complete CPU 7 instructions: 200001583 cycles: 110887896 (Simulation time: 20 hr 19 min 37 sec) 

Heartbeat CPU 1 instructions: 210000000 cycles: 153889713 heartbeat IPC: 0.232481 cumulative IPC: 0.232034 (Simulation time: 22 hr 15 min 5 sec) 
 Total Blocks : 262144 Invalid Blocks : 0
Heartbeat CPU 2 instructions: 210000000 cycles: 153895329 heartbeat IPC: 0.232459 cumulative IPC: 0.232069 (Simulation time: 22 hr 15 min 8 sec) 
 Total Blocks : 262144 Invalid Blocks : 0
Heartbeat CPU 4 instructions: 210000000 cycles: 154108193 heartbeat IPC: 0.23132 cumulative IPC: 0.230962 (Simulation time: 22 hr 16 min 47 sec) 
 Total Blocks : 262144 Invalid Blocks : 0
Heartbeat CPU 0 instructions: 210000000 cycles: 154154913 heartbeat IPC: 0.23103 cumulative IPC: 0.23041 (Simulation time: 22 hr 17 min 10 sec) 
 Total Blocks : 262144 Invalid Blocks : 0
Heartbeat CPU 5 instructions: 210000000 cycles: 154254702 heartbeat IPC: 0.230562 cumulative IPC: 0.230363 (Simulation time: 22 hr 17 min 55 sec) 
 Total Blocks : 262144 Invalid Blocks : 0
Heartbeat CPU 7 instructions: 210000000 cycles: 154334193 heartbeat IPC: 0.230165 cumulative IPC: 0.230133 (Simulation time: 22 hr 18 min 27 sec) 
 Total Blocks : 262144 Invalid Blocks : 0
Heartbeat CPU 3 instructions: 210000000 cycles: 154427205 heartbeat IPC: 0.22964 cumulative IPC: 0.229389 (Simulation time: 22 hr 19 min 2 sec) 
 Total Blocks : 262144 Invalid Blocks : 0
Heartbeat CPU 6 instructions: 210000000 cycles: 154501133 heartbeat IPC: 0.229288 cumulative IPC: 0.229288 (Simulation time: 22 hr 19 min 27 sec) 
 Total Blocks : 262144 Invalid Blocks : 0
Heartbeat CPU 2 instructions: 220000000 cycles: 203854223 heartbeat IPC: 0.200165 cumulative IPC: 0.214924 (Simulation time: 24 hr 4 min 22 sec) 
 Total Blocks : 262144 Invalid Blocks : 0
Heartbeat CPU 1 instructions: 220000000 cycles: 203970150 heartbeat IPC: 0.199679 cumulative IPC: 0.214626 (Simulation time: 24 hr 4 min 44 sec) 
 Total Blocks : 262144 Invalid Blocks : 0
Heartbeat CPU 0 instructions: 220000000 cycles: 204585691 heartbeat IPC: 0.198292 cumulative IPC: 0.213123 (Simulation time: 24 hr 6 min 36 sec) 
 Total Blocks : 262144 Invalid Blocks : 0
Heartbeat CPU 4 instructions: 220000000 cycles: 204613409 heartbeat IPC: 0.197999 cumulative IPC: 0.2132 (Simulation time: 24 hr 6 min 40 sec) 
 Total Blocks : 262144 Invalid Blocks : 0
Heartbeat CPU 5 instructions: 220000000 cycles: 205072622 heartbeat IPC: 0.196781 cumulative IPC: 0.212244 (Simulation time: 24 hr 7 min 50 sec) 
 Total Blocks : 262144 Invalid Blocks : 0
Heartbeat CPU 7 instructions: 220000000 cycles: 205078673 heartbeat IPC: 0.197066 cumulative IPC: 0.212318 (Simulation time: 24 hr 7 min 50 sec) 
 Total Blocks : 262144 Invalid Blocks : 0
Heartbeat CPU 6 instructions: 220000000 cycles: 205295607 heartbeat IPC: 0.196872 cumulative IPC: 0.211847 (Simulation time: 24 hr 8 min 16 sec) 
 Total Blocks : 262144 Invalid Blocks : 0
Heartbeat CPU 3 instructions: 220000000 cycles: 205299000 heartbeat IPC: 0.196573 cumulative IPC: 0.211706 (Simulation time: 24 hr 8 min 17 sec) 
 Total Blocks : 262144 Invalid Blocks : 0
Heartbeat CPU 2 instructions: 230000001 cycles: 252718249 heartbeat IPC: 0.20465 cumulative IPC: 0.211384 (Simulation time: 25 hr 50 min 54 sec) 
 Total Blocks : 262144 Invalid Blocks : 0
Heartbeat CPU 1 instructions: 230000001 cycles: 253551664 heartbeat IPC: 0.201688 cumulative IPC: 0.210129 (Simulation time: 25 hr 51 min 19 sec) 
 Total Blocks : 262144 Invalid Blocks : 0
Heartbeat CPU 7 instructions: 230000001 cycles: 253725763 heartbeat IPC: 0.205562 cumulative IPC: 0.210017 (Simulation time: 25 hr 51 min 24 sec) 
 Total Blocks : 262144 Invalid Blocks : 0
Heartbeat CPU 0 instructions: 230000001 cycles: 253768387 heartbeat IPC: 0.203324 cumulative IPC: 0.20975 (Simulation time: 25 hr 51 min 25 sec) 
 Total Blocks : 262144 Invalid Blocks : 0
Heartbeat CPU 4 instructions: 230000001 cycles: 254023292 heartbeat IPC: 0.202389 cumulative IPC: 0.209468 (Simulation time: 25 hr 51 min 32 sec) 
 Total Blocks : 262144 Invalid Blocks : 0
Heartbeat CPU 5 instructions: 230000001 cycles: 254083528 heartbeat IPC: 0.204036 cumulative IPC: 0.209435 (Simulation time: 25 hr 51 min 34 sec) 
 Total Blocks : 262144 Invalid Blocks : 0
Heartbeat CPU 3 instructions: 230000001 cycles: 254457564 heartbeat IPC: 0.203423 cumulative IPC: 0.20887 (Simulation time: 25 hr 51 min 45 sec) 
 Total Blocks : 262144 Invalid Blocks : 0
Heartbeat CPU 6 instructions: 230000001 cycles: 254458540 heartbeat IPC: 0.203405 cumulative IPC: 0.208956 (Simulation time: 25 hr 51 min 45 sec) 
 Total Blocks : 262144 Invalid Blocks : 0
Heartbeat CPU 2 instructions: 240000001 cycles: 302617849 heartbeat IPC: 0.200402 cumulative IPC: 0.208526 (Simulation time: 30 hr 25 min 24 sec) 
 Total Blocks : 262144 Invalid Blocks : 0
Heartbeat CPU 1 instructions: 240000001 cycles: 302727051 heartbeat IPC: 0.203354 cumulative IPC: 0.208393 (Simulation time: 30 hr 27 min 36 sec) 
 Total Blocks : 262144 Invalid Blocks : 0
Heartbeat CPU 0 instructions: 240000001 cycles: 302731667 heartbeat IPC: 0.204235 cumulative IPC: 0.208342 (Simulation time: 30 hr 27 min 43 sec) 
 Total Blocks : 262144 Invalid Blocks : 0
Heartbeat CPU 7 instructions: 240000001 cycles: 302979440 heartbeat IPC: 0.203031 cumulative IPC: 0.208226 (Simulation time: 30 hr 32 min 45 sec) 
 Total Blocks : 262144 Invalid Blocks : 0
Heartbeat CPU 6 instructions: 240000001 cycles: 302987483 heartbeat IPC: 0.206063 cumulative IPC: 0.208225 (Simulation time: 30 hr 32 min 54 sec) 
 Total Blocks : 262144 Invalid Blocks : 0
Heartbeat CPU 4 instructions: 240000001 cycles: 303020945 heartbeat IPC: 0.204091 cumulative IPC: 0.208097 (Simulation time: 30 hr 33 min 36 sec) 
 Total Blocks : 262144 Invalid Blocks : 0
Heartbeat CPU 5 instructions: 240000001 cycles: 303114198 heartbeat IPC: 0.203954 cumulative IPC: 0.208037 (Simulation time: 30 hr 35 min 30 sec) 
 Total Blocks : 262144 Invalid Blocks : 0
Heartbeat CPU 3 instructions: 240000001 cycles: 303151037 heartbeat IPC: 0.205366 cumulative IPC: 0.207983 (Simulation time: 30 hr 36 min 14 sec) 
 Total Blocks : 262144 Invalid Blocks : 0
Heartbeat CPU 2 instructions: 250000000 cycles: 333212437 heartbeat IPC: 0.326855 cumulative IPC: 0.22481 (Simulation time: 44 hr 30 min 24 sec) 
 Total Blocks : 262144 Invalid Blocks : 0
Heartbeat CPU 1 instructions: 250000000 cycles: 333307516 heartbeat IPC: 0.327006 cumulative IPC: 0.224701 (Simulation time: 44 hr 33 min 35 sec) 
 Total Blocks : 262144 Invalid Blocks : 0
Heartbeat CPU 0 instructions: 250000000 cycles: 333327310 heartbeat IPC: 0.326844 cumulative IPC: 0.224642 (Simulation time: 44 hr 34 min 16 sec) 
 Total Blocks : 262144 Invalid Blocks : 0
Heartbeat CPU 7 instructions: 250000000 cycles: 333522009 heartbeat IPC: 0.327412 cumulative IPC: 0.224577 (Simulation time: 44 hr 40 min 28 sec) 
 Total Blocks : 262144 Invalid Blocks : 0
Heartbeat CPU 4 instructions: 250000000 cycles: 333574952 heartbeat IPC: 0.327289 cumulative IPC: 0.224451 (Simulation time: 44 hr 42 min 8 sec) 
 Total Blocks : 262144 Invalid Blocks : 0
Heartbeat CPU 6 instructions: 250000000 cycles: 333584641 heartbeat IPC: 0.326828 cumulative IPC: 0.224521 (Simulation time: 44 hr 42 min 25 sec) 
 Total Blocks : 262144 Invalid Blocks : 0
Heartbeat CPU 5 instructions: 250000000 cycles: 333665736 heartbeat IPC: 0.327316 cumulative IPC: 0.224394 (Simulation time: 44 hr 45 min 4 sec) 
 Total Blocks : 262144 Invalid Blocks : 0
Heartbeat CPU 3 instructions: 250000000 cycles: 333710780 heartbeat IPC: 0.327228 cumulative IPC: 0.224337 (Simulation time: 44 hr 46 min 33 sec) 
 Total Blocks : 262144 Invalid Blocks : 0
Heartbeat CPU 2 instructions: 260000001 cycles: 364089319 heartbeat IPC: 0.323867 cumulative IPC: 0.236889 (Simulation time: 63 hr 14 min 58 sec) 
 Total Blocks : 262144 Invalid Blocks : 0
Heartbeat CPU 0 instructions: 260000001 cycles: 364171578 heartbeat IPC: 0.324209 cumulative IPC: 0.236767 (Simulation time: 63 hr 17 min 42 sec) 
 Total Blocks : 262144 Invalid Blocks : 0
Heartbeat CPU 1 instructions: 260000001 cycles: 364179514 heartbeat IPC: 0.323918 cumulative IPC: 0.236794 (Simulation time: 63 hr 17 min 58 sec) 
 Total Blocks : 262144 Invalid Blocks : 0
Heartbeat CPU 7 instructions: 260000001 cycles: 364381552 heartbeat IPC: 0.324049 cumulative IPC: 0.236686 (Simulation time: 63 hr 24 min 37 sec) 
 Total Blocks : 262144 Invalid Blocks : 0
Heartbeat CPU 4 instructions: 260000001 cycles: 364437358 heartbeat IPC: 0.324019 cumulative IPC: 0.23657 (Simulation time: 63 hr 26 min 28 sec) 
 Total Blocks : 262144 Invalid Blocks : 0
Heartbeat CPU 6 instructions: 260000001 cycles: 364441930 heartbeat IPC: 0.324073 cumulative IPC: 0.236636 (Simulation time: 63 hr 26 min 38 sec) 
 Total Blocks : 262144 Invalid Blocks : 0
Heartbeat CPU 5 instructions: 260000001 cycles: 364551938 heartbeat IPC: 0.323769 cumulative IPC: 0.236494 (Simulation time: 63 hr 30 min 17 sec) 
 Total Blocks : 262144 Invalid Blocks : 0
Heartbeat CPU 3 instructions: 260000001 cycles: 364564191 heartbeat IPC: 0.324113 cumulative IPC: 0.236472 (Simulation time: 63 hr 30 min 40 sec) 
 Total Blocks : 262144 Invalid Blocks : 0
Heartbeat CPU 2 instructions: 270000000 cycles: 395845462 heartbeat IPC: 0.3149 cumulative IPC: 0.245583 (Simulation time: 80 hr 12 min 0 sec) 
 Total Blocks : 262144 Invalid Blocks : 0
Heartbeat CPU 1 instructions: 270000000 cycles: 395908684 heartbeat IPC: 0.315167 cumulative IPC: 0.245518 (Simulation time: 80 hr 14 min 6 sec) 
 Total Blocks : 262144 Invalid Blocks : 0
Heartbeat CPU 0 instructions: 270000000 cycles: 395911420 heartbeat IPC: 0.315061 cumulative IPC: 0.245486 (Simulation time: 80 hr 14 min 11 sec) 
 Total Blocks : 262144 Invalid Blocks : 0
Heartbeat CPU 4 instructions: 270000000 cycles: 396091208 heartbeat IPC: 0.315917 cumulative IPC: 0.245377 (Simulation time: 80 hr 20 min 3 sec) 
 Total Blocks : 262144 Invalid Blocks : 0
Heartbeat CPU 7 instructions: 270000000 cycles: 396106818 heartbeat IPC: 0.315206 cumulative IPC: 0.24542 (Simulation time: 80 hr 20 min 34 sec) 
 Total Blocks : 262144 Invalid Blocks : 0
Heartbeat CPU 6 instructions: 270000000 cycles: 396143362 heartbeat IPC: 0.315443 cumulative IPC: 0.245394 (Simulation time: 80 hr 21 min 46 sec) 
 Total Blocks : 262144 Invalid Blocks : 0
Heartbeat CPU 5 instructions: 270000000 cycles: 396240513 heartbeat IPC: 0.315571 cumulative IPC: 0.245276 (Simulation time: 80 hr 24 min 55 sec) 
 Total Blocks : 262144 Invalid Blocks : 0
Heartbeat CPU 3 instructions: 270000000 cycles: 396256715 heartbeat IPC: 0.315532 cumulative IPC: 0.245253 (Simulation time: 80 hr 25 min 24 sec) 
 Total Blocks : 262144 Invalid Blocks : 0
Heartbeat CPU 2 instructions: 280000000 cycles: 428498374 heartbeat IPC: 0.306251 cumulative IPC: 0.25182 (Simulation time: 98 hr 56 min 11 sec) 
 Total Blocks : 262144 Invalid Blocks : 0
Heartbeat CPU 0 instructions: 280000000 cycles: 428606462 heartbeat IPC: 0.305857 cumulative IPC: 0.251698 (Simulation time: 98 hr 56 min 32 sec) 
 Total Blocks : 262144 Invalid Blocks : 0
Heartbeat CPU 1 instructions: 280000000 cycles: 428613435 heartbeat IPC: 0.305766 cumulative IPC: 0.25172 (Simulation time: 98 hr 56 min 32 sec) 
 Total Blocks : 262144 Invalid Blocks : 0
Heartbeat CPU 7 instructions: 280000000 cycles: 428863729 heartbeat IPC: 0.305279 cumulative IPC: 0.251586 (Simulation time: 98 hr 56 min 39 sec) 
 Total Blocks : 262144 Invalid Blocks : 0
Heartbeat CPU 4 instructions: 280000000 cycles: 428901690 heartbeat IPC: 0.304781 cumulative IPC: 0.251506 (Simulation time: 98 hr 56 min 41 sec) 
 Total Blocks : 262144 Invalid Blocks : 0
Heartbeat CPU 6 instructions: 280000000 cycles: 429017217 heartbeat IPC: 0.304193 cumulative IPC: 0.25147 (Simulation time: 98 hr 56 min 44 sec) 
 Total Blocks : 262144 Invalid Blocks : 0
Heartbeat CPU 5 instructions: 280000000 cycles: 429050898 heartbeat IPC: 0.304782 cumulative IPC: 0.251412 (Simulation time: 98 hr 56 min 44 sec) 
 Total Blocks : 262144 Invalid Blocks : 0
Heartbeat CPU 3 instructions: 280000000 cycles: 429114670 heartbeat IPC: 0.30434 cumulative IPC: 0.251354 (Simulation time: 98 hr 56 min 46 sec) 
 Total Blocks : 262144 Invalid Blocks : 0
Heartbeat CPU 2 instructions: 290000000 cycles: 472330221 heartbeat IPC: 0.228145 cumulative IPC: 0.248949 (Simulation time: 101 hr 7 min 2 sec) 
 Total Blocks : 262144 Invalid Blocks : 0
Heartbeat CPU 0 instructions: 290000000 cycles: 472384503 heartbeat IPC: 0.228425 cumulative IPC: 0.24888 (Simulation time: 101 hr 7 min 18 sec) 
 Total Blocks : 262144 Invalid Blocks : 0
Heartbeat CPU 1 instructions: 290000000 cycles: 472478792 heartbeat IPC: 0.22797 cumulative IPC: 0.248839 (Simulation time: 101 hr 7 min 46 sec) 
 Total Blocks : 262144 Invalid Blocks : 0
Heartbeat CPU 7 instructions: 290000000 cycles: 472864190 heartbeat IPC: 0.22727 cumulative IPC: 0.248631 (Simulation time: 101 hr 9 min 43 sec) 
 Total Blocks : 262144 Invalid Blocks : 0
Heartbeat CPU 4 instructions: 290000000 cycles: 472897832 heartbeat IPC: 0.227293 cumulative IPC: 0.248563 (Simulation time: 101 hr 9 min 52 sec) 
 Total Blocks : 262144 Invalid Blocks : 0
Heartbeat CPU 6 instructions: 290000000 cycles: 472954721 heartbeat IPC: 0.227596 cumulative IPC: 0.248573 (Simulation time: 101 hr 10 min 9 sec) 
 Total Blocks : 262144 Invalid Blocks : 0
Heartbeat CPU 5 instructions: 290000000 cycles: 473022813 heartbeat IPC: 0.227418 cumulative IPC: 0.248499 (Simulation time: 101 hr 10 min 29 sec) 
 Total Blocks : 262144 Invalid Blocks : 0
Heartbeat CPU 3 instructions: 290000000 cycles: 473077163 heartbeat IPC: 0.227467 cumulative IPC: 0.248454 (Simulation time: 101 hr 10 min 42 sec) 
 Total Blocks : 262144 Invalid Blocks : 0
Heartbeat CPU 2 instructions: 300000001 cycles: 519434513 heartbeat IPC: 0.212295 cumulative IPC: 0.244723 (Simulation time: 102 hr 49 min 48 sec) 
 Total Blocks : 262144 Invalid Blocks : 0
Heartbeat CPU 1 instructions: 300000001 cycles: 519455315 heartbeat IPC: 0.212872 cumulative IPC: 0.244703 (Simulation time: 102 hr 49 min 57 sec) 
 Total Blocks : 262144 Invalid Blocks : 0
Heartbeat CPU 0 instructions: 300000001 cycles: 519533105 heartbeat IPC: 0.212095 cumulative IPC: 0.244636 (Simulation time: 102 hr 50 min 22 sec) 
 Total Blocks : 262144 Invalid Blocks : 0
Heartbeat CPU 4 instructions: 300000001 cycles: 519558017 heartbeat IPC: 0.214316 cumulative IPC: 0.244653 (Simulation time: 102 hr 50 min 30 sec) 
 Total Blocks : 262144 Invalid Blocks : 0
Heartbeat CPU 7 instructions: 300000001 cycles: 519636192 heartbeat IPC: 0.213803 cumulative IPC: 0.244645 (Simulation time: 102 hr 50 min 55 sec) 
 Total Blocks : 262144 Invalid Blocks : 0
Heartbeat CPU 3 instructions: 300000001 cycles: 519737286 heartbeat IPC: 0.214316 cumulative IPC: 0.244558 (Simulation time: 102 hr 51 min 29 sec) 
 Total Blocks : 262144 Invalid Blocks : 0
Heartbeat CPU 6 instructions: 300000001 cycles: 519762066 heartbeat IPC: 0.213642 cumulative IPC: 0.244574 (Simulation time: 102 hr 51 min 40 sec) 
 Total Blocks : 262144 Invalid Blocks : 0
Heartbeat CPU 5 instructions: 300000001 cycles: 519832857 heartbeat IPC: 0.213629 cumulative IPC: 0.244507 (Simulation time: 102 hr 52 min 4 sec) 
 Total Blocks : 262144 Invalid Blocks : 0
Heartbeat CPU 2 instructions: 310000001 cycles: 576903637 heartbeat IPC: 0.174006 cumulative IPC: 0.236002 (Simulation time: 104 hr 21 min 22 sec) 
 Total Blocks : 262144 Invalid Blocks : 0
Heartbeat CPU 1 instructions: 310000001 cycles: 576964763 heartbeat IPC: 0.173884 cumulative IPC: 0.235965 (Simulation time: 104 hr 21 min 29 sec) 
 Total Blocks : 262144 Invalid Blocks : 0
Heartbeat CPU 3 instructions: 310000001 cycles: 577007304 heartbeat IPC: 0.174611 cumulative IPC: 0.235964 (Simulation time: 104 hr 21 min 35 sec) 
 Total Blocks : 262144 Invalid Blocks : 0
Heartbeat CPU 0 instructions: 310000001 cycles: 577070026 heartbeat IPC: 0.173801 cumulative IPC: 0.235893 (Simulation time: 104 hr 21 min 43 sec) 
 Total Blocks : 262144 Invalid Blocks : 0
Heartbeat CPU 4 instructions: 310000001 cycles: 577161178 heartbeat IPC: 0.173602 cumulative IPC: 0.235875 (Simulation time: 104 hr 22 min 1 sec) 
 Total Blocks : 262144 Invalid Blocks : 0
Heartbeat CPU 7 instructions: 310000001 cycles: 577201551 heartbeat IPC: 0.173716 cumulative IPC: 0.235889 (Simulation time: 104 hr 22 min 8 sec) 
 Total Blocks : 262144 Invalid Blocks : 0
Heartbeat CPU 6 instructions: 310000001 cycles: 577346635 heartbeat IPC: 0.173658 cumulative IPC: 0.235819 (Simulation time: 104 hr 22 min 39 sec) 
 Total Blocks : 262144 Invalid Blocks : 0
Heartbeat CPU 5 instructions: 310000001 cycles: 577511951 heartbeat IPC: 0.173373 cumulative IPC: 0.235715 (Simulation time: 104 hr 23 min 27 sec) 
 Total Blocks : 262144 Invalid Blocks : 0
Heartbeat CPU 3 instructions: 320000001 cycles: 641156894 heartbeat IPC: 0.155886 cumulative IPC: 0.226277 (Simulation time: 105 hr 52 min 1 sec) 
 Total Blocks : 262144 Invalid Blocks : 0
Heartbeat CPU 2 instructions: 320000001 cycles: 641183131 heartbeat IPC: 0.155571 cumulative IPC: 0.226253 (Simulation time: 105 hr 52 min 8 sec) 
 Total Blocks : 262144 Invalid Blocks : 0
Heartbeat CPU 1 instructions: 320000001 cycles: 642284266 heartbeat IPC: 0.153094 cumulative IPC: 0.225778 (Simulation time: 105 hr 57 min 5 sec) 
 Total Blocks : 262144 Invalid Blocks : 0
Heartbeat CPU 4 instructions: 320000001 cycles: 642305099 heartbeat IPC: 0.153506 cumulative IPC: 0.225778 (Simulation time: 105 hr 57 min 14 sec) 
 Total Blocks : 262144 Invalid Blocks : 0
Heartbeat CPU 7 instructions: 320000001 cycles: 642889521 heartbeat IPC: 0.152235 cumulative IPC: 0.22556 (Simulation time: 106 hr 1 min 15 sec) 
 Total Blocks : 262144 Invalid Blocks : 0
Heartbeat CPU 0 instructions: 320000001 cycles: 642992647 heartbeat IPC: 0.151693 cumulative IPC: 0.225462 (Simulation time: 106 hr 2 min 7 sec) 
 Total Blocks : 262144 Invalid Blocks : 0
Heartbeat CPU 6 instructions: 320000001 cycles: 643359857 heartbeat IPC: 0.151485 cumulative IPC: 0.225364 (Simulation time: 106 hr 4 min 20 sec) 
 Total Blocks : 262144 Invalid Blocks : 0
Heartbeat CPU 5 instructions: 320000001 cycles: 643459665 heartbeat IPC: 0.151635 cumulative IPC: 0.225303 (Simulation time: 106 hr 4 min 58 sec) 
 Total Blocks : 262144 Invalid Blocks : 0
Heartbeat CPU 3 instructions: 330000000 cycles: 689546048 heartbeat IPC: 0.206658 cumulative IPC: 0.224636 (Simulation time: 108 hr 28 min 37 sec) 
 Total Blocks : 262144 Invalid Blocks : 0
Heartbeat CPU 2 instructions: 330000000 cycles: 689572027 heartbeat IPC: 0.206659 cumulative IPC: 0.224614 (Simulation time: 108 hr 28 min 43 sec) 
 Total Blocks : 262144 Invalid Blocks : 0
Heartbeat CPU 4 instructions: 330000000 cycles: 693874282 heartbeat IPC: 0.193914 cumulative IPC: 0.222959 (Simulation time: 108 hr 58 min 37 sec) 
 Total Blocks : 262144 Invalid Blocks : 0
Heartbeat CPU 1 instructions: 330000000 cycles: 694037082 heartbeat IPC: 0.193226 cumulative IPC: 0.22289 (Simulation time: 109 hr 0 min 37 sec) 
 Total Blocks : 262144 Invalid Blocks : 0
Heartbeat CPU 5 instructions: 330000000 cycles: 694138381 heartbeat IPC: 0.197321 cumulative IPC: 0.222872 (Simulation time: 109 hr 1 min 45 sec) 
 Total Blocks : 262144 Invalid Blocks : 0
Heartbeat CPU 7 instructions: 330000000 cycles: 694141223 heartbeat IPC: 0.195115 cumulative IPC: 0.222885 (Simulation time: 109 hr 1 min 47 sec) 
 Total Blocks : 262144 Invalid Blocks : 0
Heartbeat CPU 0 instructions: 330000000 cycles: 694342064 heartbeat IPC: 0.194744 cumulative IPC: 0.222758 (Simulation time: 109 hr 3 min 16 sec) 
 Total Blocks : 262144 Invalid Blocks : 0
Heartbeat CPU 6 instructions: 330000000 cycles: 694442306 heartbeat IPC: 0.195762 cumulative IPC: 0.222773 (Simulation time: 109 hr 4 min 4 sec) 
 Total Blocks : 262144 Invalid Blocks : 0
Heartbeat CPU 2 instructions: 340000000 cycles: 724173346 heartbeat IPC: 0.289006 cumulative IPC: 0.228247 (Simulation time: 111 hr 49 min 29 sec) 
 Total Blocks : 262144 Invalid Blocks : 0
Heartbeat CPU 3 instructions: 340000000 cycles: 724180611 heartbeat IPC: 0.288729 cumulative IPC: 0.228256 (Simulation time: 111 hr 49 min 29 sec) 
 Total Blocks : 262144 Invalid Blocks : 0
Heartbeat CPU 4 instructions: 340000000 cycles: 730335792 heartbeat IPC: 0.274262 cumulative IPC: 0.225979 (Simulation time: 112 hr 14 min 37 sec) 
 Total Blocks : 262144 Invalid Blocks : 0
Heartbeat CPU 7 instructions: 340000001 cycles: 730349697 heartbeat IPC: 0.276178 cumulative IPC: 0.226 (Simulation time: 112 hr 14 min 37 sec) 
 Total Blocks : 262144 Invalid Blocks : 0
Heartbeat CPU 5 instructions: 340000000 cycles: 730763695 heartbeat IPC: 0.273035 cumulative IPC: 0.225836 (Simulation time: 112 hr 14 min 54 sec) 
 Total Blocks : 262144 Invalid Blocks : 0
Heartbeat CPU 1 instructions: 340000000 cycles: 730867710 heartbeat IPC: 0.271513 cumulative IPC: 0.225778 (Simulation time: 112 hr 14 min 57 sec) 
 Total Blocks : 262144 Invalid Blocks : 0
Heartbeat CPU 0 instructions: 340000000 cycles: 731405812 heartbeat IPC: 0.269805 cumulative IPC: 0.225568 (Simulation time: 112 hr 15 min 16 sec) 
 Total Blocks : 262144 Invalid Blocks : 0
Heartbeat CPU 6 instructions: 340000000 cycles: 731460236 heartbeat IPC: 0.270139 cumulative IPC: 0.225598 (Simulation time: 112 hr 15 min 19 sec) 
 Total Blocks : 262144 Invalid Blocks : 0
Heartbeat CPU 3 instructions: 350000003 cycles: 786833578 heartbeat IPC: 0.159609 cumulative IPC: 0.221893 (Simulation time: 113 hr 22 min 45 sec) 
 Total Blocks : 262144 Invalid Blocks : 0
Heartbeat CPU 2 instructions: 350000003 cycles: 786844579 heartbeat IPC: 0.159563 cumulative IPC: 0.221879 (Simulation time: 113 hr 22 min 48 sec) 
 Total Blocks : 262144 Invalid Blocks : 0
Heartbeat CPU 4 instructions: 350000003 cycles: 796564049 heartbeat IPC: 0.150993 cumulative IPC: 0.218736 (Simulation time: 113 hr 52 min 6 sec) 
 Total Blocks : 262144 Invalid Blocks : 0
Heartbeat CPU 7 instructions: 350000003 cycles: 796652354 heartbeat IPC: 0.150824 cumulative IPC: 0.218732 (Simulation time: 113 hr 52 min 9 sec) 
 Total Blocks : 262144 Invalid Blocks : 0
Heartbeat CPU 5 instructions: 350000003 cycles: 797365400 heartbeat IPC: 0.150146 cumulative IPC: 0.218492 (Simulation time: 113 hr 52 min 36 sec) 
 Total Blocks : 262144 Invalid Blocks : 0
Heartbeat CPU 1 instructions: 350000003 cycles: 797451676 heartbeat IPC: 0.150186 cumulative IPC: 0.218447 (Simulation time: 113 hr 52 min 39 sec) 
 Total Blocks : 262144 Invalid Blocks : 0
Heartbeat CPU 6 instructions: 350000003 cycles: 798898092 heartbeat IPC: 0.148285 cumulative IPC: 0.21802 (Simulation time: 113 hr 53 min 22 sec) 
 Total Blocks : 262144 Invalid Blocks : 0
Heartbeat CPU 0 instructions: 350000003 cycles: 799066594 heartbeat IPC: 0.147796 cumulative IPC: 0.217922 (Simulation time: 113 hr 53 min 28 sec) 
 Total Blocks : 262144 Invalid Blocks : 0
Heartbeat CPU 2 instructions: 360000001 cycles: 848278777 heartbeat IPC: 0.162776 cumulative IPC: 0.216955 (Simulation time: 115 hr 49 min 20 sec) 
 Total Blocks : 262144 Invalid Blocks : 0
Heartbeat CPU 3 instructions: 360000001 cycles: 848309953 heartbeat IPC: 0.162664 cumulative IPC: 0.216955 (Simulation time: 115 hr 49 min 23 sec) 
 Total Blocks : 262144 Invalid Blocks : 0
Heartbeat CPU 7 instructions: 360000001 cycles: 859220585 heartbeat IPC: 0.159825 cumulative IPC: 0.213807 (Simulation time: 116 hr 2 min 12 sec) 
 Total Blocks : 262144 Invalid Blocks : 0
Heartbeat CPU 4 instructions: 360000001 cycles: 859232571 heartbeat IPC: 0.15957 cumulative IPC: 0.213782 (Simulation time: 116 hr 2 min 14 sec) 
 Total Blocks : 262144 Invalid Blocks : 0
Heartbeat CPU 5 instructions: 360000001 cycles: 860899399 heartbeat IPC: 0.157396 cumulative IPC: 0.213317 (Simulation time: 116 hr 7 min 0 sec) 
 Total Blocks : 262144 Invalid Blocks : 0
Heartbeat CPU 1 instructions: 360000001 cycles: 861043333 heartbeat IPC: 0.157253 cumulative IPC: 0.21326 (Simulation time: 116 hr 7 min 26 sec) 
 Total Blocks : 262144 Invalid Blocks : 0
Heartbeat CPU 6 instructions: 360000001 cycles: 861685454 heartbeat IPC: 0.159268 cumulative IPC: 0.213107 (Simulation time: 116 hr 9 min 50 sec) 
 Total Blocks : 262144 Invalid Blocks : 0
Heartbeat CPU 0 instructions: 360000001 cycles: 861793235 heartbeat IPC: 0.159422 cumulative IPC: 0.213035 (Simulation time: 116 hr 10 min 9 sec) 
 Total Blocks : 262144 Invalid Blocks : 0
Heartbeat CPU 2 instructions: 370000003 cycles: 896189777 heartbeat IPC: 0.20872 cumulative IPC: 0.216453 (Simulation time: 117 hr 32 min 44 sec) 
 Total Blocks : 262144 Invalid Blocks : 0
Heartbeat CPU 3 instructions: 370000003 cycles: 896310629 heartbeat IPC: 0.20833 cumulative IPC: 0.216428 (Simulation time: 117 hr 32 min 50 sec) 
 Total Blocks : 262144 Invalid Blocks : 0
Heartbeat CPU 4 instructions: 370000003 cycles: 906157448 heartbeat IPC: 0.213107 cumulative IPC: 0.213742 (Simulation time: 118 hr 3 min 21 sec) 
 Total Blocks : 262144 Invalid Blocks : 0
Heartbeat CPU 7 instructions: 370000003 cycles: 906162890 heartbeat IPC: 0.213028 cumulative IPC: 0.213761 (Simulation time: 118 hr 3 min 23 sec) 
 Total Blocks : 262144 Invalid Blocks : 0
Heartbeat CPU 5 instructions: 370000003 cycles: 910068174 heartbeat IPC: 0.203381 cumulative IPC: 0.212706 (Simulation time: 118 hr 19 min 7 sec) 
 Total Blocks : 262144 Invalid Blocks : 0
Heartbeat CPU 1 instructions: 370000003 cycles: 910290012 heartbeat IPC: 0.203059 cumulative IPC: 0.212631 (Simulation time: 118 hr 19 min 36 sec) 
 Total Blocks : 262144 Invalid Blocks : 0
Heartbeat CPU 6 instructions: 370000003 cycles: 910621502 heartbeat IPC: 0.204348 cumulative IPC: 0.212571 (Simulation time: 118 hr 20 min 18 sec) 
 Total Blocks : 262144 Invalid Blocks : 0
Heartbeat CPU 0 instructions: 370000003 cycles: 910927634 heartbeat IPC: 0.203523 cumulative IPC: 0.212451 (Simulation time: 118 hr 20 min 51 sec) 
 Total Blocks : 262144 Invalid Blocks : 0
Heartbeat CPU 2 instructions: 380000000 cycles: 942086978 heartbeat IPC: 0.217878 cumulative IPC: 0.216531 (Simulation time: 120 hr 1 min 28 sec) 
 Total Blocks : 262144 Invalid Blocks : 0
Heartbeat CPU 3 instructions: 380000000 cycles: 942089439 heartbeat IPC: 0.218442 cumulative IPC: 0.216539 (Simulation time: 120 hr 1 min 28 sec) 
 Total Blocks : 262144 Invalid Blocks : 0
Heartbeat CPU 4 instructions: 380000000 cycles: 952380683 heartbeat IPC: 0.216341 cumulative IPC: 0.213884 (Simulation time: 120 hr 22 min 28 sec) 
 Total Blocks : 262144 Invalid Blocks : 0
Heartbeat CPU 7 instructions: 380000000 cycles: 952707457 heartbeat IPC: 0.214848 cumulative IPC: 0.213821 (Simulation time: 120 hr 22 min 37 sec) 
 Total Blocks : 262144 Invalid Blocks : 0
Heartbeat CPU 5 instructions: 380000000 cycles: 958397076 heartbeat IPC: 0.206915 cumulative IPC: 0.212375 (Simulation time: 120 hr 29 min 41 sec) 
 Total Blocks : 262144 Invalid Blocks : 0
Heartbeat CPU 1 instructions: 380000000 cycles: 958595609 heartbeat IPC: 0.207015 cumulative IPC: 0.212311 (Simulation time: 120 hr 30 min 7 sec) 
 Total Blocks : 262144 Invalid Blocks : 0
Heartbeat CPU 6 instructions: 380000000 cycles: 958702130 heartbeat IPC: 0.207984 cumulative IPC: 0.212311 (Simulation time: 120 hr 30 min 21 sec) 
 Total Blocks : 262144 Invalid Blocks : 0
Heartbeat CPU 0 instructions: 380000000 cycles: 959014491 heartbeat IPC: 0.207957 cumulative IPC: 0.212196 (Simulation time: 120 hr 31 min 1 sec) 
 Total Blocks : 262144 Invalid Blocks : 0
Heartbeat CPU 2 instructions: 390000000 cycles: 990052993 heartbeat IPC: 0.208481 cumulative IPC: 0.216092 (Simulation time: 121 hr 35 min 2 sec) 
 Total Blocks : 262144 Invalid Blocks : 0
Heartbeat CPU 3 instructions: 390000000 cycles: 990063623 heartbeat IPC: 0.208445 cumulative IPC: 0.216097 (Simulation time: 121 hr 35 min 2 sec) 
 Total Blocks : 262144 Invalid Blocks : 0
Heartbeat CPU 4 instructions: 390000000 cycles: 1003731839 heartbeat IPC: 0.194738 cumulative IPC: 0.212783 (Simulation time: 121 hr 56 min 38 sec) 
 Total Blocks : 262144 Invalid Blocks : 0
Heartbeat CPU 7 instructions: 390000000 cycles: 1003903126 heartbeat IPC: 0.195329 cumulative IPC: 0.212761 (Simulation time: 121 hr 57 min 31 sec) 
 Total Blocks : 262144 Invalid Blocks : 0
Heartbeat CPU 5 instructions: 390000000 cycles: 1009763897 heartbeat IPC: 0.194678 cumulative IPC: 0.211364 (Simulation time: 122 hr 10 min 2 sec) 
 Total Blocks : 262144 Invalid Blocks : 0
Heartbeat CPU 1 instructions: 390000000 cycles: 1010073697 heartbeat IPC: 0.194257 cumulative IPC: 0.211278 (Simulation time: 122 hr 11 min 33 sec) 
 Total Blocks : 262144 Invalid Blocks : 0
Heartbeat CPU 6 instructions: 390000000 cycles: 1010181846 heartbeat IPC: 0.194251 cumulative IPC: 0.211277 (Simulation time: 122 hr 12 min 10 sec) 
 Total Blocks : 262144 Invalid Blocks : 0
Heartbeat CPU 0 instructions: 390000000 cycles: 1010463320 heartbeat IPC: 0.194368 cumulative IPC: 0.211176 (Simulation time: 122 hr 14 min 15 sec) 
 Total Blocks : 262144 Invalid Blocks : 0
Heartbeat CPU 3 instructions: 400000000 cycles: 1044419742 heartbeat IPC: 0.183972 cumulative IPC: 0.214227 (Simulation time: 123 hr 52 min 45 sec) 
 Total Blocks : 262144 Invalid Blocks : 0
Heartbeat CPU 2 instructions: 400000001 cycles: 1044456711 heartbeat IPC: 0.183811 cumulative IPC: 0.214211 (Simulation time: 123 hr 52 min 47 sec) 
 Total Blocks : 262144 Invalid Blocks : 0
Finished CPU 3 instructions: 200000000 cycles: 933571167 cumulative IPC: 0.214231 (Simulation time: 123 hr 52 min 47 sec) 
Finished CPU 2 instructions: 200000003 cycles: 933624530 cumulative IPC: 0.214219 (Simulation time: 123 hr 52 min 50 sec) 
Heartbeat CPU 4 instructions: 400000001 cycles: 1059359609 heartbeat IPC: 0.179766 cumulative IPC: 0.210847 (Simulation time: 124 hr 6 min 3 sec) 
 Total Blocks : 262144 Invalid Blocks : 0
Finished CPU 4 instructions: 200000001 cycles: 948524906 cumulative IPC: 0.210854 (Simulation time: 124 hr 6 min 6 sec) 
Heartbeat CPU 7 instructions: 400000000 cycles: 1059682473 heartbeat IPC: 0.179278 cumulative IPC: 0.210792 (Simulation time: 124 hr 6 min 25 sec) 
 Total Blocks : 262144 Invalid Blocks : 0
Finished CPU 7 instructions: 200000002 cycles: 948797488 cumulative IPC: 0.210793 (Simulation time: 124 hr 6 min 25 sec) 
Heartbeat CPU 5 instructions: 400000001 cycles: 1066289255 heartbeat IPC: 0.176912 cumulative IPC: 0.209326 (Simulation time: 124 hr 14 min 51 sec) 
 Total Blocks : 262144 Invalid Blocks : 0
Finished CPU 5 instructions: 200000000 cycles: 955426760 cumulative IPC: 0.209331 (Simulation time: 124 hr 14 min 52 sec) 
Heartbeat CPU 1 instructions: 400000001 cycles: 1066491161 heartbeat IPC: 0.17725 cumulative IPC: 0.209269 (Simulation time: 124 hr 15 min 3 sec) 
 Total Blocks : 262144 Invalid Blocks : 0
Finished CPU 1 instructions: 200000000 cycles: 955662126 cumulative IPC: 0.209279 (Simulation time: 124 hr 15 min 8 sec) 
Heartbeat CPU 6 instructions: 400000000 cycles: 1066766639 heartbeat IPC: 0.176726 cumulative IPC: 0.209232 (Simulation time: 124 hr 15 min 35 sec) 
 Total Blocks : 262144 Invalid Blocks : 0
Finished CPU 6 instructions: 200000000 cycles: 955878743 cumulative IPC: 0.209232 (Simulation time: 124 hr 15 min 35 sec) 
Heartbeat CPU 0 instructions: 400000001 cycles: 1066822064 heartbeat IPC: 0.177435 cumulative IPC: 0.209187 (Simulation time: 124 hr 15 min 41 sec) 
 Total Blocks : 262144 Invalid Blocks : 0
Finished CPU 0 instructions: 200000000 cycles: 956015370 cumulative IPC: 0.209202 (Simulation time: 124 hr 15 min 49 sec) 

CPU 0 Branch Prediction Accuracy: 98.3213% MPKI: 2.87101 Average ROB Occupancy at Mispredict: 135.745

CPU 1 Branch Prediction Accuracy: 98.321% MPKI: 2.87058 Average ROB Occupancy at Mispredict: 135.79

CPU 2 Branch Prediction Accuracy: 98.3143% MPKI: 2.84536 Average ROB Occupancy at Mispredict: 137.299

CPU 3 Branch Prediction Accuracy: 98.3143% MPKI: 2.84538 Average ROB Occupancy at Mispredict: 137.302

CPU 4 Branch Prediction Accuracy: 98.3197% MPKI: 2.86101 Average ROB Occupancy at Mispredict: 136.319

CPU 5 Branch Prediction Accuracy: 98.3209% MPKI: 2.87007 Average ROB Occupancy at Mispredict: 135.826

CPU 6 Branch Prediction Accuracy: 98.3211% MPKI: 2.8713 Average ROB Occupancy at Mispredict: 135.762

CPU 7 Branch Prediction Accuracy: 98.3194% MPKI: 2.86165 Average ROB Occupancy at Mispredict: 136.323

ChampSim completed all CPUs

Total Simulation Statistics (not including warmup)

CPU 0 cumulative IPC: 0.209202 instructions: 200000000 cycles: 956015370
ITLB TOTAL     ACCESS: 49835917  HIT: 49835917  MISS:     0  HIT %:   100  MISS %:     0  AVERAGE MISS PENALTY: 0
ITLB LOAD      ACCESS: 49835917  HIT: 49835917  MISS:     0  HIT %:   100  MISS %:     0  AVERAGE MISS PENALTY: 0
ITLB RFO       ACCESS:     0  HIT:     0  MISS:     0  HIT %:     0  MISS %:     0  AVERAGE MISS PENALTY: 0
ITLB PREFETCH  ACCESS:     0  HIT:     0  MISS:     0  HIT %:     0  MISS %:     0  AVERAGE MISS PENALTY: 0
ITLB WRITEBACK ACCESS:     0  HIT:     0  MISS:     0  HIT %:     0  MISS %:     0  AVERAGE MISS PENALTY: 0

DTLB TOTAL     ACCESS: 59975064  HIT: 59110648  MISS: 864416  HIT %: 98.5587  MISS %: 1.44129  AVERAGE MISS PENALTY: 42.0079
DTLB LOAD      ACCESS: 45194941  HIT: 44348235  MISS: 846706  HIT %: 98.1265  MISS %: 1.87345  AVERAGE MISS PENALTY: 41.9278
DTLB RFO       ACCESS: 14780123  HIT: 14762413  MISS: 17710  HIT %: 99.8802  MISS %: 0.119823  AVERAGE MISS PENALTY: 45.8403
DTLB PREFETCH  ACCESS:     0  HIT:     0  MISS:     0  HIT %:     0  MISS %:     0  AVERAGE MISS PENALTY: 0
DTLB WRITEBACK ACCESS:     0  HIT:     0  MISS:     0  HIT %:     0  MISS %:     0  AVERAGE MISS PENALTY: 0

STLB TOTAL     ACCESS: 864416  HIT: 580888  MISS: 283528  HIT %: 67.2001  MISS %: 32.7999  AVERAGE MISS PENALTY: 100
STLB LOAD      ACCESS: 846706  HIT: 569289  MISS: 277417  HIT %: 67.2357  MISS %: 32.7643  AVERAGE MISS PENALTY: 100
STLB RFO       ACCESS: 17710  HIT: 11599  MISS:  6111  HIT %: 65.4941  MISS %: 34.5059  AVERAGE MISS PENALTY: 100
STLB PREFETCH  ACCESS:     0  HIT:     0  MISS:     0  HIT %:     0  MISS %:     0  AVERAGE MISS PENALTY: 0
STLB WRITEBACK ACCESS:     0  HIT:     0  MISS:     0  HIT %:     0  MISS %:     0  AVERAGE MISS PENALTY: 0

L1D TOTAL     ACCESS: 100357219  HIT: 86380674  MISS: 13976545  HIT %: 86.0732  MISS %: 13.9268  AVERAGE MISS PENALTY: 1.43564e+08
L1D LOAD      ACCESS: 46661523  HIT: 38286281  MISS: 8375242  HIT %: 82.0511  MISS %: 17.9489  AVERAGE MISS PENALTY: 2.39054e+08
L1D RFO       ACCESS: 34470194  HIT: 34095116  MISS: 375078  HIT %: 98.9119  MISS %: 1.08812  AVERAGE MISS PENALTY: 1.17051e+07
L1D PREFETCH  ACCESS: 19225502  HIT: 13999277  MISS: 5226225  HIT %: 72.8162  MISS %: 27.1838  AVERAGE MISS PENALTY: 309.575
L1D WRITEBACK ACCESS:     0  HIT:     0  MISS:     0  HIT %:     0  MISS %:     0  AVERAGE MISS PENALTY: 0

L1I TOTAL     ACCESS: 61932803  HIT: 61932793  MISS:    10  HIT %:   100  MISS %: 1.61465e-05  AVERAGE MISS PENALTY: 290.9
L1I LOAD      ACCESS: 61932803  HIT: 61932793  MISS:    10  HIT %:   100  MISS %: 1.61465e-05  AVERAGE MISS PENALTY: 290.9
L1I RFO       ACCESS:     0  HIT:     0  MISS:     0  HIT %:     0  MISS %:     0  AVERAGE MISS PENALTY: 0
L1I PREFETCH  ACCESS:     0  HIT:     0  MISS:     0  HIT %:     0  MISS %:     0  AVERAGE MISS PENALTY: 0
L1I WRITEBACK ACCESS:     0  HIT:     0  MISS:     0  HIT %:     0  MISS %:     0  AVERAGE MISS PENALTY: 0

L2C TOTAL     ACCESS: 16410811  HIT: 2753793  MISS: 13657018  HIT %: 16.7804  MISS %: 83.2196  AVERAGE MISS PENALTY: 1.34603e+08
L2C LOAD      ACCESS: 8251428  HIT: 285553  MISS: 7965875  HIT %: 3.46065  MISS %: 96.5394  AVERAGE MISS PENALTY: 2.30751e+08
L2C RFO       ACCESS: 367950  HIT:  8920  MISS: 359030  HIT %: 2.42424  MISS %: 97.5758  AVERAGE MISS PENALTY: 399403
L2C PREFETCH  ACCESS: 6984464  HIT: 1661092  MISS: 5323372  HIT %: 23.7827  MISS %: 76.2173  AVERAGE MISS PENALTY: 385.985
L2C WRITEBACK ACCESS: 806969  HIT: 798228  MISS:  8741  HIT %: 98.9168  MISS %: 1.08319  AVERAGE MISS PENALTY: 0


LLC0 TOTAL     ACCESS: 1789391  HIT: 161077  MISS: 1628314  HIT %: 9.00178  MISS %: 90.9982  AVERAGE MISS PENALTY: 384.927
LLC0 LOAD      ACCESS: 681049  HIT: 43858  MISS: 637191  HIT %: 6.43977  MISS %: 93.5602  AVERAGE MISS PENALTY: 396.625
LLC0 RFO       ACCESS: 45436  HIT:    46  MISS: 45390  HIT %: 0.101241  MISS %: 99.8988  AVERAGE MISS PENALTY: 435.778
LLC0 PREFETCH  ACCESS: 973289  HIT: 54653  MISS: 918636  HIT %: 5.61529  MISS %: 94.3847  AVERAGE MISS PENALTY: 385.655
LLC0 WRITEBACK ACCESS: 89617  HIT: 62520  MISS: 27097  HIT %: 69.7635  MISS %: 30.2365  AVERAGE MISS PENALTY: 0

LLC1 TOTAL     ACCESS: 1798190  HIT: 160400  MISS: 1637790  HIT %: 8.92008  MISS %: 91.0799  AVERAGE MISS PENALTY: 389.664
LLC1 LOAD      ACCESS: 684158  HIT: 44575  MISS: 639583  HIT %: 6.51531  MISS %: 93.4847  AVERAGE MISS PENALTY: 406.115
LLC1 RFO       ACCESS: 44930  HIT:   100  MISS: 44830  HIT %: 0.222568  MISS %: 99.7774  AVERAGE MISS PENALTY: 439.34
LLC1 PREFETCH  ACCESS: 979835  HIT: 53316  MISS: 926519  HIT %: 5.44132  MISS %: 94.5587  AVERAGE MISS PENALTY: 387.2
LLC1 WRITEBACK ACCESS: 89267  HIT: 62409  MISS: 26858  HIT %: 69.9127  MISS %: 30.0873  AVERAGE MISS PENALTY: 0

LLC2 TOTAL     ACCESS: 1802739  HIT: 159587  MISS: 1643152  HIT %: 8.85247  MISS %: 91.1475  AVERAGE MISS PENALTY: 394.172
LLC2 LOAD      ACCESS: 668938  HIT: 43364  MISS: 625574  HIT %: 6.48251  MISS %: 93.5175  AVERAGE MISS PENALTY: 411.33
LLC2 RFO       ACCESS: 44809  HIT:    48  MISS: 44761  HIT %: 0.107121  MISS %: 99.8929  AVERAGE MISS PENALTY: 434.474
LLC2 PREFETCH  ACCESS: 999904  HIT: 54292  MISS: 945612  HIT %: 5.42972  MISS %: 94.5703  AVERAGE MISS PENALTY: 392.254
LLC2 WRITEBACK ACCESS: 89088  HIT: 61883  MISS: 27205  HIT %: 69.4628  MISS %: 30.5372  AVERAGE MISS PENALTY: 0

LLC3 TOTAL     ACCESS: 1798959  HIT: 160967  MISS: 1637992  HIT %: 8.94779  MISS %: 91.0522  AVERAGE MISS PENALTY: 396.994
LLC3 LOAD      ACCESS: 672959  HIT: 43975  MISS: 628984  HIT %: 6.53457  MISS %: 93.4654  AVERAGE MISS PENALTY: 413.25
LLC3 RFO       ACCESS: 44815  HIT:    52  MISS: 44763  HIT %: 0.116033  MISS %: 99.884  AVERAGE MISS PENALTY: 438.54
LLC3 PREFETCH  ACCESS: 992461  HIT: 54829  MISS: 937632  HIT %: 5.52455  MISS %: 94.4755  AVERAGE MISS PENALTY: 395.373
LLC3 WRITEBACK ACCESS: 88724  HIT: 62111  MISS: 26613  HIT %: 70.0047  MISS %: 29.9953  AVERAGE MISS PENALTY: 0

LLC4 TOTAL     ACCESS: 1796408  HIT: 161060  MISS: 1635348  HIT %: 8.96567  MISS %: 91.0343  AVERAGE MISS PENALTY: 391.32
LLC4 LOAD      ACCESS: 668080  HIT: 45509  MISS: 622571  HIT %: 6.81191  MISS %: 93.1881  AVERAGE MISS PENALTY: 415.479
LLC4 RFO       ACCESS: 44717  HIT:    27  MISS: 44690  HIT %: 0.0603797  MISS %: 99.9396  AVERAGE MISS PENALTY: 439.801
LLC4 PREFETCH  ACCESS: 994756  HIT: 53284  MISS: 941472  HIT %: 5.35649  MISS %: 94.6435  AVERAGE MISS PENALTY: 384.105
LLC4 WRITEBACK ACCESS: 88855  HIT: 62240  MISS: 26615  HIT %: 70.0467  MISS %: 29.9533  AVERAGE MISS PENALTY: 0

LLC5 TOTAL     ACCESS: 1793260  HIT: 160694  MISS: 1632566  HIT %: 8.961  MISS %: 91.039  AVERAGE MISS PENALTY: 378.949
LLC5 LOAD      ACCESS: 671015  HIT: 46918  MISS: 624097  HIT %: 6.99209  MISS %: 93.0079  AVERAGE MISS PENALTY: 403.522
LLC5 RFO       ACCESS: 44713  HIT:    43  MISS: 44670  HIT %: 0.0961689  MISS %: 99.9038  AVERAGE MISS PENALTY: 427.949
LLC5 PREFETCH  ACCESS: 989497  HIT: 52061  MISS: 937436  HIT %: 5.26136  MISS %: 94.7386  AVERAGE MISS PENALTY: 370.912
LLC5 WRITEBACK ACCESS: 88035  HIT: 61672  MISS: 26363  HIT %: 70.054  MISS %: 29.946  AVERAGE MISS PENALTY: 0

LLC6 TOTAL     ACCESS: 1792342  HIT: 161538  MISS: 1630804  HIT %: 9.01268  MISS %: 90.9873  AVERAGE MISS PENALTY: 397.898
LLC6 LOAD      ACCESS: 674236  HIT: 47826  MISS: 626410  HIT %: 7.09336  MISS %: 92.9066  AVERAGE MISS PENALTY: 426.525
LLC6 RFO       ACCESS: 44690  HIT:    40  MISS: 44650  HIT %: 0.0895055  MISS %: 99.9105  AVERAGE MISS PENALTY: 435.876
LLC6 PREFETCH  ACCESS: 984975  HIT: 51973  MISS: 933002  HIT %: 5.27658  MISS %: 94.7234  AVERAGE MISS PENALTY: 388.266
LLC6 WRITEBACK ACCESS: 88441  HIT: 61699  MISS: 26742  HIT %: 69.7629  MISS %: 30.2371  AVERAGE MISS PENALTY: 0

LLC7 TOTAL     ACCESS: 1787669  HIT: 162259  MISS: 1625410  HIT %: 9.07657  MISS %: 90.9234  AVERAGE MISS PENALTY: 388.845
LLC7 LOAD      ACCESS: 683091  HIT: 49845  MISS: 633246  HIT %: 7.29698  MISS %: 92.703  AVERAGE MISS PENALTY: 414.83
LLC7 RFO       ACCESS: 44688  HIT:    27  MISS: 44661  HIT %: 0.0604189  MISS %: 99.9396  AVERAGE MISS PENALTY: 428.117
LLC7 PREFETCH  ACCESS: 971235  HIT: 50253  MISS: 920982  HIT %: 5.17413  MISS %: 94.8259  AVERAGE MISS PENALTY: 380.271
LLC7 WRITEBACK ACCESS: 88655  HIT: 62134  MISS: 26521  HIT %: 70.0852  MISS %: 29.9148  AVERAGE MISS PENALTY: 0

Total Rob stall cycles : 	918327641
Total Load Rob Stall cycles : 	564225537
Average Rob Stall cycles : 	 14
Average Load Rob Stall cycles : 	 58

CPU 1 cumulative IPC: 0.20936 instructions: 200151489 cycles: 956015370
ITLB TOTAL     ACCESS: 49869278  HIT: 49869278  MISS:     0  HIT %:   100  MISS %:     0  AVERAGE MISS PENALTY: 0
ITLB LOAD      ACCESS: 49869278  HIT: 49869278  MISS:     0  HIT %:   100  MISS %:     0  AVERAGE MISS PENALTY: 0
ITLB RFO       ACCESS:     0  HIT:     0  MISS:     0  HIT %:     0  MISS %:     0  AVERAGE MISS PENALTY: 0
ITLB PREFETCH  ACCESS:     0  HIT:     0  MISS:     0  HIT %:     0  MISS %:     0  AVERAGE MISS PENALTY: 0
ITLB WRITEBACK ACCESS:     0  HIT:     0  MISS:     0  HIT %:     0  MISS %:     0  AVERAGE MISS PENALTY: 0

DTLB TOTAL     ACCESS: 60024512  HIT: 59159866  MISS: 864646  HIT %: 98.5595  MISS %: 1.44049  AVERAGE MISS PENALTY: 42.0068
DTLB LOAD      ACCESS: 45226605  HIT: 44379700  MISS: 846905  HIT %: 98.1274  MISS %: 1.87258  AVERAGE MISS PENALTY: 41.9266
DTLB RFO       ACCESS: 14797907  HIT: 14780166  MISS: 17741  HIT %: 99.8801  MISS %: 0.119889  AVERAGE MISS PENALTY: 45.8377
DTLB PREFETCH  ACCESS:     0  HIT:     0  MISS:     0  HIT %:     0  MISS %:     0  AVERAGE MISS PENALTY: 0
DTLB WRITEBACK ACCESS:     0  HIT:     0  MISS:     0  HIT %:     0  MISS %:     0  AVERAGE MISS PENALTY: 0

STLB TOTAL     ACCESS: 864646  HIT: 581075  MISS: 283571  HIT %: 67.2038  MISS %: 32.7962  AVERAGE MISS PENALTY: 100
STLB LOAD      ACCESS: 846905  HIT: 569449  MISS: 277456  HIT %: 67.2388  MISS %: 32.7612  AVERAGE MISS PENALTY: 100
STLB RFO       ACCESS: 17741  HIT: 11626  MISS:  6115  HIT %: 65.5318  MISS %: 34.4682  AVERAGE MISS PENALTY: 100
STLB PREFETCH  ACCESS:     0  HIT:     0  MISS:     0  HIT %:     0  MISS %:     0  AVERAGE MISS PENALTY: 0
STLB WRITEBACK ACCESS:     0  HIT:     0  MISS:     0  HIT %:     0  MISS %:     0  AVERAGE MISS PENALTY: 0

L1D TOTAL     ACCESS: 100447206  HIT: 86471665  MISS: 13975541  HIT %: 86.0867  MISS %: 13.9133  AVERAGE MISS PENALTY: 1.43357e+08
L1D LOAD      ACCESS: 46690450  HIT: 38317466  MISS: 8372984  HIT %: 82.067  MISS %: 17.933  AVERAGE MISS PENALTY: 2.38753e+08
L1D RFO       ACCESS: 34512086  HIT: 34136688  MISS: 375398  HIT %: 98.9123  MISS %: 1.08773  AVERAGE MISS PENALTY: 1.17583e+07
L1D PREFETCH  ACCESS: 19244670  HIT: 14017511  MISS: 5227159  HIT %: 72.8384  MISS %: 27.1616  AVERAGE MISS PENALTY: 308.693
L1D WRITEBACK ACCESS:     0  HIT:     0  MISS:     0  HIT %:     0  MISS %:     0  AVERAGE MISS PENALTY: 0

L1I TOTAL     ACCESS: 61974805  HIT: 61974795  MISS:    10  HIT %:   100  MISS %: 1.61356e-05  AVERAGE MISS PENALTY: 429.8
L1I LOAD      ACCESS: 61974805  HIT: 61974795  MISS:    10  HIT %:   100  MISS %: 1.61356e-05  AVERAGE MISS PENALTY: 429.8
L1I RFO       ACCESS:     0  HIT:     0  MISS:     0  HIT %:     0  MISS %:     0  AVERAGE MISS PENALTY: 0
L1I PREFETCH  ACCESS:     0  HIT:     0  MISS:     0  HIT %:     0  MISS %:     0  AVERAGE MISS PENALTY: 0
L1I WRITEBACK ACCESS:     0  HIT:     0  MISS:     0  HIT %:     0  MISS %:     0  AVERAGE MISS PENALTY: 0

L2C TOTAL     ACCESS: 16406006  HIT: 2761383  MISS: 13644623  HIT %: 16.8315  MISS %: 83.1685  AVERAGE MISS PENALTY: 1.34515e+08
L2C LOAD      ACCESS: 8248774  HIT: 284006  MISS: 7964768  HIT %: 3.44301  MISS %: 96.557  AVERAGE MISS PENALTY: 2.30422e+08
L2C RFO       ACCESS: 368195  HIT:  8969  MISS: 359226  HIT %: 2.43594  MISS %: 97.5641  AVERAGE MISS PENALTY: 390985
L2C PREFETCH  ACCESS: 6981939  HIT: 1669385  MISS: 5312554  HIT %: 23.91  MISS %: 76.09  AVERAGE MISS PENALTY: 385.334
L2C WRITEBACK ACCESS: 807098  HIT: 799023  MISS:  8075  HIT %: 98.9995  MISS %: 1.0005  AVERAGE MISS PENALTY: 0


LLC0 TOTAL     ACCESS: 1787753  HIT: 162301  MISS: 1625452  HIT %: 9.07849  MISS %: 90.9215  AVERAGE MISS PENALTY: 385.674
LLC0 LOAD      ACCESS: 680582  HIT: 44551  MISS: 636031  HIT %: 6.54602  MISS %: 93.454  AVERAGE MISS PENALTY: 398.357
LLC0 RFO       ACCESS: 45459  HIT:    47  MISS: 45412  HIT %: 0.10339  MISS %: 99.8966  AVERAGE MISS PENALTY: 426.701
LLC0 PREFETCH  ACCESS: 972315  HIT: 54135  MISS: 918180  HIT %: 5.56764  MISS %: 94.4324  AVERAGE MISS PENALTY: 385.708
LLC0 WRITEBACK ACCESS: 89397  HIT: 63568  MISS: 25829  HIT %: 71.1075  MISS %: 28.8925  AVERAGE MISS PENALTY: 0

LLC1 TOTAL     ACCESS: 1797385  HIT: 160834  MISS: 1636551  HIT %: 8.94822  MISS %: 91.0518  AVERAGE MISS PENALTY: 389.681
LLC1 LOAD      ACCESS: 684338  HIT: 44836  MISS: 639502  HIT %: 6.55173  MISS %: 93.4483  AVERAGE MISS PENALTY: 407.04
LLC1 RFO       ACCESS: 44938  HIT:    85  MISS: 44853  HIT %: 0.189149  MISS %: 99.8109  AVERAGE MISS PENALTY: 432.125
LLC1 PREFETCH  ACCESS: 979023  HIT: 52575  MISS: 926448  HIT %: 5.37015  MISS %: 94.6299  AVERAGE MISS PENALTY: 386.473
LLC1 WRITEBACK ACCESS: 89086  HIT: 63338  MISS: 25748  HIT %: 71.0976  MISS %: 28.9024  AVERAGE MISS PENALTY: 0

LLC2 TOTAL     ACCESS: 1801098  HIT: 160095  MISS: 1641003  HIT %: 8.88874  MISS %: 91.1113  AVERAGE MISS PENALTY: 394.334
LLC2 LOAD      ACCESS: 668600  HIT: 42996  MISS: 625604  HIT %: 6.43075  MISS %: 93.5692  AVERAGE MISS PENALTY: 412.366
LLC2 RFO       ACCESS: 44845  HIT:    47  MISS: 44798  HIT %: 0.104805  MISS %: 99.8952  AVERAGE MISS PENALTY: 425.751
LLC2 PREFETCH  ACCESS: 998614  HIT: 53869  MISS: 944745  HIT %: 5.39438  MISS %: 94.6056  AVERAGE MISS PENALTY: 391.696
LLC2 WRITEBACK ACCESS: 89039  HIT: 63183  MISS: 25856  HIT %: 70.961  MISS %: 29.039  AVERAGE MISS PENALTY: 0

LLC3 TOTAL     ACCESS: 1797102  HIT: 160921  MISS: 1636181  HIT %: 8.95447  MISS %: 91.0455  AVERAGE MISS PENALTY: 397.354
LLC3 LOAD      ACCESS: 672841  HIT: 44310  MISS: 628531  HIT %: 6.58551  MISS %: 93.4145  AVERAGE MISS PENALTY: 415.344
LLC3 RFO       ACCESS: 44847  HIT:    55  MISS: 44792  HIT %: 0.122639  MISS %: 99.8774  AVERAGE MISS PENALTY: 431.743
[...]
LLC1 AVERAGE MISS LATENCY: 387.942 cycles
LLC2 TOTAL     ACCESS: 1807903  HIT: 158700  MISS: 1649203  HIT %: 8.77813  MISS %: 91.2219  AVERAGE MISS PENALTY: 393.013
LLC2 LOAD      ACCESS: 669999  HIT: 43778  MISS: 626221  HIT %: 6.53404  MISS %: 93.466  AVERAGE MISS PENALTY: 409.253
LLC2 RFO       ACCESS: 44819  HIT:    43  MISS: 44776  HIT %: 0.0959415  MISS %: 99.9041  AVERAGE MISS PENALTY: 441.789
LLC2 PREFETCH  ACCESS: 1003684  HIT: 58205  MISS: 945479  HIT %: 5.79914  MISS %: 94.2009  AVERAGE MISS PENALTY: 393.55
LLC2 WRITEBACK ACCESS: 89401  HIT: 56674  MISS: 32727  HIT %: 63.393  MISS %: 36.607  AVERAGE MISS PENALTY: 0
LLC2 PREFETCH  REQUESTED:     0  ISSUED:     0  USEFUL: 108524  USELESS: 7479289
 USEFUL LOAD PREFETCHES:     108524 PREFETCH ISSUED TO LOWER LEVEL:    7591685  ACCURACY: 1.42951
 TIMELY PREFETCHES:     108524 LATE PREFETCHES: 0 DROPPED PREFETCHES: 0
LLC2 AVERAGE MISS LATENCY: 393.013 cycles
LLC3 TOTAL     ACCESS: 1803650  HIT: 159624  MISS: 1644026  HIT %: 8.85005  MISS %: 91.1499  AVERAGE MISS PENALTY: 395.499
LLC3 LOAD      ACCESS: 673613  HIT: 44328  MISS: 629285  HIT %: 6.58063  MISS %: 93.4194  AVERAGE MISS PENALTY: 412.347
LLC3 RFO       ACCESS: 44835  HIT:    45  MISS: 44790  HIT %: 0.100368  MISS %: 99.8996  AVERAGE MISS PENALTY: 446.733
LLC3 PREFETCH  ACCESS: 996175  HIT: 58886  MISS: 937289  HIT %: 5.91121  MISS %: 94.0888  AVERAGE MISS PENALTY: 395.522
LLC3 WRITEBACK ACCESS: 89027  HIT: 56365  MISS: 32662  HIT %: 63.3123  MISS %: 36.6877  AVERAGE MISS PENALTY: 0
LLC3 PREFETCH  REQUESTED:     0  ISSUED:     0  USEFUL: 107637  USELESS: 7415400
 USEFUL LOAD PREFETCHES:     107637 PREFETCH ISSUED TO LOWER LEVEL:    7527639  ACCURACY: 1.42989
 TIMELY PREFETCHES:     107637 LATE PREFETCHES: 0 DROPPED PREFETCHES: 0
LLC3 AVERAGE MISS LATENCY: 395.499 cycles
LLC4 TOTAL     ACCESS: 1800831  HIT: 159997  MISS: 1640834  HIT %: 8.88462  MISS %: 91.1154  AVERAGE MISS PENALTY: 389.815
LLC4 LOAD      ACCESS: 667896  HIT: 45452  MISS: 622444  HIT %: 6.80525  MISS %: 93.1947  AVERAGE MISS PENALTY: 413.848
LLC4 RFO       ACCESS: 44743  HIT:    36  MISS: 44707  HIT %: 0.0804595  MISS %: 99.9195  AVERAGE MISS PENALTY: 448.207
LLC4 PREFETCH  ACCESS: 999054  HIT: 57747  MISS: 941307  HIT %: 5.78017  MISS %: 94.2198  AVERAGE MISS PENALTY: 384.558
LLC4 WRITEBACK ACCESS: 89138  HIT: 56762  MISS: 32376  HIT %: 63.6788  MISS %: 36.3212  AVERAGE MISS PENALTY: 0
LLC4 PREFETCH  REQUESTED:     0  ISSUED:     0  USEFUL: 109785  USELESS: 7441417
 USEFUL LOAD PREFETCHES:     109785 PREFETCH ISSUED TO LOWER LEVEL:    7550176  ACCURACY: 1.45407
 TIMELY PREFETCHES:     109785 LATE PREFETCHES: 0 DROPPED PREFETCHES: 0
LLC4 AVERAGE MISS LATENCY: 389.815 cycles
LLC5 TOTAL     ACCESS: 1798037  HIT: 159733  MISS: 1638304  HIT %: 8.88374  MISS %: 91.1163  AVERAGE MISS PENALTY: 377.909
LLC5 LOAD      ACCESS: 670726  HIT: 46683  MISS: 624043  HIT %: 6.96007  MISS %: 93.0399  AVERAGE MISS PENALTY: 402.421
LLC5 RFO       ACCESS: 44728  HIT:    47  MISS: 44681  HIT %: 0.10508  MISS %: 99.8949  AVERAGE MISS PENALTY: 436.168
LLC5 PREFETCH  ACCESS: 994423  HIT: 56938  MISS: 937485  HIT %: 5.72573  MISS %: 94.2743  AVERAGE MISS PENALTY: 371.753
LLC5 WRITEBACK ACCESS: 88160  HIT: 56065  MISS: 32095  HIT %: 63.5946  MISS %: 36.4054  AVERAGE MISS PENALTY: 0
LLC5 PREFETCH  REQUESTED:     0  ISSUED:     0  USEFUL: 103905  USELESS: 7417600
 USEFUL LOAD PREFETCHES:     103905 PREFETCH ISSUED TO LOWER LEVEL:    7520644  ACCURACY: 1.3816
 TIMELY PREFETCHES:     103905 LATE PREFETCHES: 0 DROPPED PREFETCHES: 0
LLC5 AVERAGE MISS LATENCY: 377.909 cycles
LLC6 TOTAL     ACCESS: 1797552  HIT: 160970  MISS: 1636582  HIT %: 8.95496  MISS %: 91.045  AVERAGE MISS PENALTY: 396.865
LLC6 LOAD      ACCESS: 674790  HIT: 47944  MISS: 626846  HIT %: 7.10503  MISS %: 92.895  AVERAGE MISS PENALTY: 425.194
LLC6 RFO       ACCESS: 44724  HIT:    37  MISS: 44687  HIT %: 0.0827296  MISS %: 99.9173  AVERAGE MISS PENALTY: 446.229
LLC6 PREFETCH  ACCESS: 989456  HIT: 56673  MISS: 932783  HIT %: 5.72769  MISS %: 94.2723  AVERAGE MISS PENALTY: 389.19
LLC6 WRITEBACK ACCESS: 88582  HIT: 56316  MISS: 32266  HIT %: 63.575  MISS %: 36.425  AVERAGE MISS PENALTY: 0
LLC6 PREFETCH  REQUESTED:     0  ISSUED:     0  USEFUL: 101620  USELESS: 7385739
 USEFUL LOAD PREFETCHES:     101620 PREFETCH ISSUED TO LOWER LEVEL:    7487258  ACCURACY: 1.35724
 TIMELY PREFETCHES:     101620 LATE PREFETCHES: 0 DROPPED PREFETCHES: 0
LLC6 AVERAGE MISS LATENCY: 396.865 cycles
LLC7 TOTAL     ACCESS: 1791950  HIT: 160341  MISS: 1631609  HIT %: 8.94785  MISS %: 91.0521  AVERAGE MISS PENALTY: 387.315
LLC7 LOAD      ACCESS: 682550  HIT: 49996  MISS: 632554  HIT %: 7.32488  MISS %: 92.6751  AVERAGE MISS PENALTY: 412.922
LLC7 RFO       ACCESS: 44713  HIT:    31  MISS: 44682  HIT %: 0.0693311  MISS %: 99.9307  AVERAGE MISS PENALTY: 435.21
LLC7 PREFETCH  ACCESS: 975530  HIT: 53709  MISS: 921821  HIT %: 5.50562  MISS %: 94.4944  AVERAGE MISS PENALTY: 381.099
LLC7 WRITEBACK ACCESS: 89157  HIT: 56605  MISS: 32552  HIT %: 63.4891  MISS %: 36.5109  AVERAGE MISS PENALTY: 0
LLC7 PREFETCH  REQUESTED:     0  ISSUED:     0  USEFUL: 99560  USELESS: 7290049
 USEFUL LOAD PREFETCHES:      99560 PREFETCH ISSUED TO LOWER LEVEL:    7388997  ACCURACY: 1.34741
 TIMELY PREFETCHES:      99560 LATE PREFETCHES: 0 DROPPED PREFETCHES: 0
LLC7 AVERAGE MISS LATENCY: 387.315 cycles
ROI Average ROB Stall Cycles:	14.0196
ROI Total ROB Stalls Cycles:	918195934
ROI TOTAL ROB counter      :	65493593
ROI Average Load ROB Stall Cycles:	58.1963
ROI Total Load ROB Stalls Cycle  :	563504991
ROI Total Load ROB stalls Counter:	9682837
Major fault: 0 Minor fault: 117063

CPU 7 cumulative IPC: 0.210793 instructions: 200000002 cycles: 948797488
ITLB TOTAL     ACCESS: 49837137  HIT: 49837137  MISS:     0  HIT %:   100  MISS %:     0  AVERAGE MISS PENALTY: 0
ITLB LOAD      ACCESS: 49837137  HIT: 49837137  MISS:     0  HIT %:   100  MISS %:     0  AVERAGE MISS PENALTY: 0
ITLB RFO       ACCESS:     0  HIT:     0  MISS:     0  HIT %:     0  MISS %:     0  AVERAGE MISS PENALTY: 0
ITLB PREFETCH  ACCESS:     0  HIT:     0  MISS:     0  HIT %:     0  MISS %:     0  AVERAGE MISS PENALTY: 0
ITLB WRITEBACK ACCESS:     0  HIT:     0  MISS:     0  HIT %:     0  MISS %:     0  AVERAGE MISS PENALTY: 0
ITLB PREFETCH  REQUESTED:     0  ISSUED:     0  USEFUL:     0  USELESS:     0
 USEFUL LOAD PREFETCHES:          0 PREFETCH ISSUED TO LOWER LEVEL:          0  ACCURACY: -nan
 TIMELY PREFETCHES:          0 LATE PREFETCHES: 0 DROPPED PREFETCHES: 0
ITLB AVERAGE MISS LATENCY: -nan cycles
DTLB TOTAL     ACCESS: 59977886  HIT: 59113242  MISS: 864644  HIT %: 98.5584  MISS %: 1.4416  AVERAGE MISS PENALTY: 41.9982
DTLB LOAD      ACCESS: 45197930  HIT: 44351002  MISS: 846928  HIT %: 98.1262  MISS %: 1.87382  AVERAGE MISS PENALTY: 41.9181
DTLB RFO       ACCESS: 14779956  HIT: 14762240  MISS: 17716  HIT %: 99.8801  MISS %: 0.119865  AVERAGE MISS PENALTY: 45.8283
DTLB PREFETCH  ACCESS:     0  HIT:     0  MISS:     0  HIT %:     0  MISS %:     0  AVERAGE MISS PENALTY: 0
DTLB WRITEBACK ACCESS:     0  HIT:     0  MISS:     0  HIT %:     0  MISS %:     0  AVERAGE MISS PENALTY: 0
DTLB PREFETCH  REQUESTED:     0  ISSUED:     0  USEFUL:     0  USELESS:     0
 USEFUL LOAD PREFETCHES:          0 PREFETCH ISSUED TO LOWER LEVEL:          0  ACCURACY: -nan
 TIMELY PREFETCHES:          0 LATE PREFETCHES: 0 DROPPED PREFETCHES: 0
DTLB AVERAGE MISS LATENCY: 41.9982 cycles
STLB TOTAL     ACCESS: 864644  HIT: 581115  MISS: 283529  HIT %: 67.2086  MISS %: 32.7914  AVERAGE MISS PENALTY: 100
STLB LOAD      ACCESS: 846928  HIT: 569511  MISS: 277417  HIT %: 67.2443  MISS %: 32.7557  AVERAGE MISS PENALTY: 100
STLB RFO       ACCESS: 17716  HIT: 11604  MISS:  6112  HIT %: 65.5001  MISS %: 34.4999  AVERAGE MISS PENALTY: 100
STLB PREFETCH  ACCESS:     0  HIT:     0  MISS:     0  HIT %:     0  MISS %:     0  AVERAGE MISS PENALTY: 0
STLB WRITEBACK ACCESS:     0  HIT:     0  MISS:     0  HIT %:     0  MISS %:     0  AVERAGE MISS PENALTY: 0
STLB PREFETCH  REQUESTED:     0  ISSUED:     0  USEFUL:     0  USELESS:     0
 USEFUL LOAD PREFETCHES:          0 PREFETCH ISSUED TO LOWER LEVEL:          0  ACCURACY: -nan
 TIMELY PREFETCHES:          0 LATE PREFETCHES: 0 DROPPED PREFETCHES: 0
STLB AVERAGE MISS LATENCY: 100 cycles
L1D TOTAL     ACCESS: 100350259  HIT: 86376190  MISS: 13974069  HIT %: 86.0747  MISS %: 13.9253  AVERAGE MISS PENALTY: 1.43227e+08
L1D LOAD      ACCESS: 46664092  HIT: 38293314  MISS: 8370778  HIT %: 82.0616  MISS %: 17.9384  AVERAGE MISS PENALTY: 2.38568e+08
L1D RFO       ACCESS: 34468710  HIT: 34093347  MISS: 375363  HIT %: 98.911  MISS %: 1.089  AVERAGE MISS PENALTY: 1.19025e+07
L1D PREFETCH  ACCESS: 19217457  HIT: 13989529  MISS: 5227928  HIT %: 72.7959  MISS %: 27.2041  AVERAGE MISS PENALTY: 306.753
L1D WRITEBACK ACCESS:     0  HIT:     0  MISS:     0  HIT %:     0  MISS %:     0  AVERAGE MISS PENALTY: 0
L1D PREFETCH  REQUESTED: 41783625  ISSUED: 40954585  USEFUL: 4008612  USELESS: 1219291
 USEFUL LOAD PREFETCHES:    4008612 PREFETCH ISSUED TO LOWER LEVEL:   27829216  ACCURACY: 14.4043
 TIMELY PREFETCHES:    4008612 LATE PREFETCHES: 6551902 DROPPED PREFETCHES: 829040
L1D AVERAGE MISS LATENCY: 320049 cycles
L1I TOTAL     ACCESS: 61934384  HIT: 61934374  MISS:    10  HIT %:   100  MISS %: 1.61461e-05  AVERAGE MISS PENALTY: 396.2
L1I LOAD      ACCESS: 61934384  HIT: 61934374  MISS:    10  HIT %:   100  MISS %: 1.61461e-05  AVERAGE MISS PENALTY: 396.2
L1I RFO       ACCESS:     0  HIT:     0  MISS:     0  HIT %:     0  MISS %:     0  AVERAGE MISS PENALTY: 0
L1I PREFETCH  ACCESS:     0  HIT:     0  MISS:     0  HIT %:     0  MISS %:     0  AVERAGE MISS PENALTY: 0
L1I WRITEBACK ACCESS:     0  HIT:     0  MISS:     0  HIT %:     0  MISS %:     0  AVERAGE MISS PENALTY: 0
L1I PREFETCH  REQUESTED:     0  ISSUED:     0  USEFUL:     0  USELESS:     0
 USEFUL LOAD PREFETCHES:          0 PREFETCH ISSUED TO LOWER LEVEL:          0  ACCURACY: -nan
 TIMELY PREFETCHES:          0 LATE PREFETCHES: 0 DROPPED PREFETCHES: 0
L1I AVERAGE MISS LATENCY: 396.2 cycles
L2C TOTAL     ACCESS: 16407141  HIT: 2710484  MISS: 13696657  HIT %: 16.5201  MISS %: 83.4799  AVERAGE MISS PENALTY: 1.33767e+08
L2C LOAD      ACCESS: 8245945  HIT: 282680  MISS: 7963265  HIT %: 3.42811  MISS %: 96.5719  AVERAGE MISS PENALTY: 2.30058e+08
L2C RFO       ACCESS: 368060  HIT:  8916  MISS: 359144  HIT %: 2.42243  MISS %: 97.5776  AVERAGE MISS PENALTY: 420596
L2C PREFETCH  ACCESS: 6986131  HIT: 1624565  MISS: 5361566  HIT %: 23.2541  MISS %: 76.7459  AVERAGE MISS PENALTY: 379.504
L2C WRITEBACK ACCESS: 807005  HIT: 794323  MISS: 12682  HIT %: 98.4285  MISS %: 1.57149  AVERAGE MISS PENALTY: 0
L2C PREFETCH  REQUESTED: 11881256  ISSUED: 11865494  USEFUL: 174252  USELESS: 5189443
 USEFUL LOAD PREFETCHES:     174252 PREFETCH ISSUED TO LOWER LEVEL:   13736887  ACCURACY: 1.2685
 TIMELY PREFETCHES:     174252 LATE PREFETCHES: 5400389 DROPPED PREFETCHES: 15762
L2C AVERAGE MISS LATENCY: 373.777 cycles
LLC0 TOTAL     ACCESS: 1794644  HIT: 165284  MISS: 1629360  HIT %: 9.20985  MISS %: 90.7902  AVERAGE MISS PENALTY: 379.841
LLC0 LOAD      ACCESS: 680539  HIT: 46152  MISS: 634387  HIT %: 6.78168  MISS %: 93.2183  AVERAGE MISS PENALTY: 391.243
LLC0 RFO       ACCESS: 45435  HIT:    47  MISS: 45388  HIT %: 0.103444  MISS %: 99.8966  AVERAGE MISS PENALTY: 436.161
LLC0 PREFETCH  ACCESS: 978036  HIT: 60966  MISS: 917070  HIT %: 6.23351  MISS %: 93.7665  AVERAGE MISS PENALTY: 382.633
LLC0 WRITEBACK ACCESS: 90634  HIT: 58119  MISS: 32515  HIT %: 64.1249  MISS %: 35.8751  AVERAGE MISS PENALTY: 0
LLC0 PREFETCH  REQUESTED:     0  ISSUED:     0  USEFUL: 113909  USELESS: 7257636
 USEFUL LOAD PREFETCHES:     113909 PREFETCH ISSUED TO LOWER LEVEL:    7372978  ACCURACY: 1.54495
 TIMELY PREFETCHES:     113909 LATE PREFETCHES: 0 DROPPED PREFETCHES: 0
LLC0 AVERAGE MISS LATENCY: 379.841 cycles
Deadblocks : 4960162 Deadblock percentage : 781.883

LLC1 TOTAL     ACCESS: 1803592  HIT: 163290  MISS: 1640302  HIT %: 9.0536  MISS %: 90.9464  AVERAGE MISS PENALTY: 383.969
LLC1 LOAD      ACCESS: 684091  HIT: 46595  MISS: 637496  HIT %: 6.81123  MISS %: 93.1888  AVERAGE MISS PENALTY: 399.889
LLC1 RFO       ACCESS: 44988  HIT:   160  MISS: 44828  HIT %: 0.35565  MISS %: 99.6443  AVERAGE MISS PENALTY: 442.012
LLC1 PREFETCH  ACCESS: 984240  HIT: 58609  MISS: 925631  HIT %: 5.95475  MISS %: 94.0453  AVERAGE MISS PENALTY: 383.612
LLC1 WRITEBACK ACCESS: 90273  HIT: 57926  MISS: 32347  HIT %: 64.1676  MISS %: 35.8324  AVERAGE MISS PENALTY: 0
LLC1 PREFETCH  REQUESTED:     0  ISSUED:     0  USEFUL: 111883  USELESS: 7327973
 USEFUL LOAD PREFETCHES:     111883 PREFETCH ISSUED TO LOWER LEVEL:    7441409  ACCURACY: 1.50352
 TIMELY PREFETCHES:     111883 LATE PREFETCHES: 0 DROPPED PREFETCHES: 0
LLC1 AVERAGE MISS LATENCY: 383.969 cycles
LLC2 TOTAL     ACCESS: 1807329  HIT: 163069  MISS: 1644260  HIT %: 9.02265  MISS %: 90.9773  AVERAGE MISS PENALTY: 388.581
LLC2 LOAD      ACCESS: 669043  HIT: 45475  MISS: 623568  HIT %: 6.79702  MISS %: 93.203  AVERAGE MISS PENALTY: 405.201
LLC2 RFO       ACCESS: 44805  HIT:    49  MISS: 44756  HIT %: 0.109363  MISS %: 99.8906  AVERAGE MISS PENALTY: 435.687
LLC2 PREFETCH  ACCESS: 1004015  HIT: 60680  MISS: 943335  HIT %: 6.04373  MISS %: 93.9563  AVERAGE MISS PENALTY: 388.788
LLC2 WRITEBACK ACCESS: 89466  HIT: 56865  MISS: 32601  HIT %: 63.5605  MISS %: 36.4395  AVERAGE MISS PENALTY: 0
LLC2 PREFETCH  REQUESTED:     0  ISSUED:     0  USEFUL: 108524  USELESS: 7479289
 USEFUL LOAD PREFETCHES:     108524 PREFETCH ISSUED TO LOWER LEVEL:    7591685  ACCURACY: 1.42951
 TIMELY PREFETCHES:     108524 LATE PREFETCHES: 0 DROPPED PREFETCHES: 0
LLC2 AVERAGE MISS LATENCY: 388.581 cycles
LLC3 TOTAL     ACCESS: 1804340  HIT: 163946  MISS: 1640394  HIT %: 9.0862  MISS %: 90.9138  AVERAGE MISS PENALTY: 391.899
LLC3 LOAD      ACCESS: 673394  HIT: 45936  MISS: 627458  HIT %: 6.82156  MISS %: 93.1784  AVERAGE MISS PENALTY: 408.337
LLC3 RFO       ACCESS: 44831  HIT:    41  MISS: 44790  HIT %: 0.0914546  MISS %: 99.9085  AVERAGE MISS PENALTY: 441.903
LLC3 PREFETCH  ACCESS: 997006  HIT: 61358  MISS: 935648  HIT %: 6.15423  MISS %: 93.8458  AVERAGE MISS PENALTY: 392.094
LLC3 WRITEBACK ACCESS: 89109  HIT: 56611  MISS: 32498  HIT %: 63.5301  MISS %: 36.4699  AVERAGE MISS PENALTY: 0
LLC3 PREFETCH  REQUESTED:     0  ISSUED:     0  USEFUL: 107637  USELESS: 7415400
 USEFUL LOAD PREFETCHES:     107637 PREFETCH ISSUED TO LOWER LEVEL:    7527639  ACCURACY: 1.42989
 TIMELY PREFETCHES:     107637 LATE PREFETCHES: 0 DROPPED PREFETCHES: 0
LLC3 AVERAGE MISS LATENCY: 391.899 cycles
LLC4 TOTAL     ACCESS: 1800964  HIT: 163864  MISS: 1637100  HIT %: 9.09868  MISS %: 90.9013  AVERAGE MISS PENALTY: 385.763
LLC4 LOAD      ACCESS: 667989  HIT: 47642  MISS: 620347  HIT %: 7.13215  MISS %: 92.8678  AVERAGE MISS PENALTY: 409.839
LLC4 RFO       ACCESS: 44735  HIT:    49  MISS: 44686  HIT %: 0.109534  MISS %: 99.8905  AVERAGE MISS PENALTY: 441.422
LLC4 PREFETCH  ACCESS: 999005  HIT: 59587  MISS: 939418  HIT %: 5.96463  MISS %: 94.0354  AVERAGE MISS PENALTY: 380.623
LLC4 WRITEBACK ACCESS: 89235  HIT: 56586  MISS: 32649  HIT %: 63.4123  MISS %: 36.5877  AVERAGE MISS PENALTY: 0
LLC4 PREFETCH  REQUESTED:     0  ISSUED:     0  USEFUL: 109785  USELESS: 7441417
 USEFUL LOAD PREFETCHES:     109785 PREFETCH ISSUED TO LOWER LEVEL:    7550176  ACCURACY: 1.45407
 TIMELY PREFETCHES:     109785 LATE PREFETCHES: 0 DROPPED PREFETCHES: 0
LLC4 AVERAGE MISS LATENCY: 385.763 cycles
LLC5 TOTAL     ACCESS: 1798136  HIT: 163942  MISS: 1634194  HIT %: 9.11733  MISS %: 90.8827  AVERAGE MISS PENALTY: 374.389
LLC5 LOAD      ACCESS: 669904  HIT: 48498  MISS: 621406  HIT %: 7.23954  MISS %: 92.7605  AVERAGE MISS PENALTY: 398.708
LLC5 RFO       ACCESS: 44718  HIT:    53  MISS: 44665  HIT %: 0.118521  MISS %: 99.8815  AVERAGE MISS PENALTY: 430.926
LLC5 PREFETCH  ACCESS: 995244  HIT: 59187  MISS: 936057  HIT %: 5.94698  MISS %: 94.053  AVERAGE MISS PENALTY: 368.372
LLC5 WRITEBACK ACCESS: 88270  HIT: 56204  MISS: 32066  HIT %: 63.6728  MISS %: 36.3272  AVERAGE MISS PENALTY: 0
LLC5 PREFETCH  REQUESTED:     0  ISSUED:     0  USEFUL: 103905  USELESS: 7417600
 USEFUL LOAD PREFETCHES:     103905 PREFETCH ISSUED TO LOWER LEVEL:    7520644  ACCURACY: 1.3816
 TIMELY PREFETCHES:     103905 LATE PREFETCHES: 0 DROPPED PREFETCHES: 0
LLC5 AVERAGE MISS LATENCY: 374.389 cycles
LLC6 TOTAL     ACCESS: 1797611  HIT: 165039  MISS: 1632572  HIT %: 9.18102  MISS %: 90.819  AVERAGE MISS PENALTY: 392.926
LLC6 LOAD      ACCESS: 674153  HIT: 49975  MISS: 624178  HIT %: 7.41301  MISS %: 92.587  AVERAGE MISS PENALTY: 420.596
LLC6 RFO       ACCESS: 44699  HIT:    37  MISS: 44662  HIT %: 0.0827759  MISS %: 99.9172  AVERAGE MISS PENALTY: 439.869
LLC6 PREFETCH  ACCESS: 990090  HIT: 58313  MISS: 931777  HIT %: 5.88967  MISS %: 94.1103  AVERAGE MISS PENALTY: 385.616
LLC6 WRITEBACK ACCESS: 88669  HIT: 56714  MISS: 31955  HIT %: 63.9615  MISS %: 36.0385  AVERAGE MISS PENALTY: 0
LLC6 PREFETCH  REQUESTED:     0  ISSUED:     0  USEFUL: 101620  USELESS: 7385739
 USEFUL LOAD PREFETCHES:     101620 PREFETCH ISSUED TO LOWER LEVEL:    7487258  ACCURACY: 1.35724
 TIMELY PREFETCHES:     101620 LATE PREFETCHES: 0 DROPPED PREFETCHES: 0
LLC6 AVERAGE MISS LATENCY: 392.926 cycles
LLC7 TOTAL     ACCESS: 1792314  HIT: 164635  MISS: 1627679  HIT %: 9.18561  MISS %: 90.8144  AVERAGE MISS PENALTY: 383.63
LLC7 LOAD      ACCESS: 682997  HIT: 51870  MISS: 631127  HIT %: 7.59447  MISS %: 92.4055  AVERAGE MISS PENALTY: 409.291
LLC7 RFO       ACCESS: 44690  HIT:    36  MISS: 44654  HIT %: 0.0805549  MISS %: 99.9194  AVERAGE MISS PENALTY: 430.217
LLC7 PREFETCH  ACCESS: 975327  HIT: 55773  MISS: 919554  HIT %: 5.71839  MISS %: 94.2816  AVERAGE MISS PENALTY: 377.249
LLC7 WRITEBACK ACCESS: 89300  HIT: 56956  MISS: 32344  HIT %: 63.7805  MISS %: 36.2195  AVERAGE MISS PENALTY: 0
LLC7 PREFETCH  REQUESTED:     0  ISSUED:     0  USEFUL: 99560  USELESS: 7290049
 USEFUL LOAD PREFETCHES:      99560 PREFETCH ISSUED TO LOWER LEVEL:    7388997  ACCURACY: 1.34741
 TIMELY PREFETCHES:      99560 LATE PREFETCHES: 0 DROPPED PREFETCHES: 0
LLC7 AVERAGE MISS LATENCY: 383.63 cycles
ROI Average ROB Stall Cycles:	13.9148
ROI Total ROB Stalls Cycles:	911100978
ROI TOTAL ROB counter      :	65476891
ROI Average Load ROB Stall Cycles:	57.81
ROI Total Load ROB Stalls Cycle  :	559331938
ROI Total Load ROB stalls Counter:	9675341
Major fault: 0 Minor fault: 117171








Interconnect Stats 
LINK 0 BW : 0LINK 1 BW : 0LINK 2 BW : 0LINK 3 BW : 0LINK 4 BW : 0LINK 5 BW : 0LINK 6 BW : 0LINK 7 BW : 0
DRAM Statistics
 CHANNEL 0
 RQ ROW_BUFFER_HIT: 24600501  ROW_BUFFER_MISS: 26917464
 DBUS_CONGESTED: 48449877
 WQ ROW_BUFFER_HIT: 218431  ROW_BUFFER_MISS: 2630819  FULL:     0

 CHANNEL 1
 RQ ROW_BUFFER_HIT: 24581294  ROW_BUFFER_MISS: 26921624
 DBUS_CONGESTED: 48449877
 WQ ROW_BUFFER_HIT: 217381  ROW_BUFFER_MISS: 2621495  FULL:     0

 AVG_CONGESTED_CYCLE: 6
DRAM PAGES: 2097152
Allocated PAGES: 937252
L2C destructor called
L1D destructor called
L1I destructor called
STLB destructor called
DTLB destructor called
ITLB destructor called
L2C destructor called
L1D destructor called
L1I destructor called
STLB destructor called
DTLB destructor called
ITLB destructor called
L2C destructor called
L1D destructor called
L1I destructor called
STLB destructor called
DTLB destructor called
ITLB destructor called
L2C destructor called
L1D destructor called
L1I destructor called
STLB destructor called
DTLB destructor called
ITLB destructor called
L2C destructor called
L1D destructor called
L1I destructor called
STLB destructor called
DTLB destructor called
ITLB destructor called
L2C destructor called
L1D destructor called
L1I destructor called
STLB destructor called
DTLB destructor called
ITLB destructor called
L2C destructor called
L1D destructor called
L1I destructor called
STLB destructor called
DTLB destructor called
ITLB destructor called
L2C destructor called
L1D destructor called
L1I destructor called
STLB destructor called
DTLB destructor called
ITLB destructor called
