
*** ChampSim Multicore Out-of-Order Simulator ***

Warmup Instructions: 200000000
Simulation Instructions: 200000000
Number of CPUs: 8
threads:1

L1I Configuration:
L1I_SET:64
L1I_WAY:8
L1I_RQ_SIZE:64
L1I_WQ_SIZE:64
L1I_PQ_SIZE:8
L1I_MSHR_SIZE:8

L1D Configuration:
L1D_SET:64
L1D_WAY:12
L1D_RQ_SIZE:64
L1D_WQ_SIZE:64
L1D_PQ_SIZE:8
L1D_MSHR_SIZE:16

L2C Configuration:
L2C_SET:1024
L2C_WAY:8
L2C_RQ_SIZE:32
L2C_WQ_SIZE:32
L2C_PQ_SIZE:16
L2C_MSHR_SIZE:32

LLC Configuration:
LLC_SET:2048
LLC_WAY:16
LLC SLICES:8
LLC_RQ_SIZE:64
LLC_WQ_SIZE:64
LLC_PQ_SIZE:32
LLC_MSHR_SIZE:64

Interconnect OFF
Attacker deprioritize is: OFF
Off-chip DRAM Size: 8192 MB Channels: 2 Width: 64-bit Data Rate: 3200 MT/s
PAGE SIZE in KB: 4.000000 
PAGE SIZE in MB: 0.003906 
PAGE offset in bits: 12 
CEASER-S_LLC:0
MIRAGE : 1
CEASER_LATENCY:3
REMAP : OFF
Partitions : 1
Multi-Step : OFF
BFS : OFF

CPU 0 runs /home/anubhav/spec_2017/605.mcf_s-665B.champsimtrace.xz
CPU 1 runs /home/anubhav/spec_2017/605.mcf_s-665B.champsimtrace.xz
CPU 2 runs /home/anubhav/spec_2017/605.mcf_s-665B.champsimtrace.xz
CPU 3 runs /home/anubhav/spec_2017/605.mcf_s-665B.champsimtrace.xz
CPU 4 runs /home/anubhav/spec_2017/605.mcf_s-665B.champsimtrace.xz
CPU 5 runs /home/anubhav/spec_2017/605.mcf_s-665B.champsimtrace.xz
CPU 6 runs /home/anubhav/spec_2017/605.mcf_s-665B.champsimtrace.xz
CPU 7 runs /home/anubhav/spec_2017/605.mcf_s-665B.champsimtrace.xz
CPU 0 Bimodal branch predictor
Initialize Hawkeye state
Initialize Hawkeye state
Initialize Hawkeye state
Initialize Hawkeye state
Initialize Hawkeye state
Initialize Hawkeye state
Initialize Hawkeye state
Initialize Hawkeye state
CPU 1 Bimodal branch predictor
Initialize Hawkeye state
Initialize Hawkeye state
Initialize Hawkeye state
Initialize Hawkeye state
Initialize Hawkeye state
Initialize Hawkeye state
Initialize Hawkeye state
Initialize Hawkeye state
CPU 2 Bimodal branch predictor
Initialize Hawkeye state
Initialize Hawkeye state
Initialize Hawkeye state
Initialize Hawkeye state
Initialize Hawkeye state
Initialize Hawkeye state
Initialize Hawkeye state
Initialize Hawkeye state
CPU 3 Bimodal branch predictor
Initialize Hawkeye state
Initialize Hawkeye state
Initialize Hawkeye state
Initialize Hawkeye state
Initialize Hawkeye state
Initialize Hawkeye state
Initialize Hawkeye state
Initialize Hawkeye state
CPU 4 Bimodal branch predictor
Initialize Hawkeye state
Initialize Hawkeye state
Initialize Hawkeye state
Initialize Hawkeye state
Initialize Hawkeye state
Initialize Hawkeye state
Initialize Hawkeye state
Initialize Hawkeye state
CPU 5 Bimodal branch predictor
Initialize Hawkeye state
Initialize Hawkeye state
Initialize Hawkeye state
Initialize Hawkeye state
Initialize Hawkeye state
Initialize Hawkeye state
Initialize Hawkeye state
Initialize Hawkeye state
CPU 6 Bimodal branch predictor
Initialize Hawkeye state
Initialize Hawkeye state
Initialize Hawkeye state
Initialize Hawkeye state
Initialize Hawkeye state
Initialize Hawkeye state
Initialize Hawkeye state
Initialize Hawkeye state
CPU 7 Bimodal branch predictor
Initialize Hawkeye state
Initialize Hawkeye state
Initialize Hawkeye state
Initialize Hawkeye state
Initialize Hawkeye state
Initialize Hawkeye state
Initialize Hawkeye state
Initialize Hawkeye state
Heartbeat CPU 5 instructions: 10000001 cycles: 11693824 heartbeat IPC: 0.855152 cumulative IPC: 0.855152 (Simulation time: 0 hr 18 min 59 sec) 
 Total Blocks : 262144 Invalid Blocks : 437
Heartbeat CPU 6 instructions: 10000001 cycles: 11693930 heartbeat IPC: 0.855145 cumulative IPC: 0.855145 (Simulation time: 0 hr 18 min 59 sec) 
 Total Blocks : 262144 Invalid Blocks : 437
Heartbeat CPU 0 instructions: 10000001 cycles: 11695409 heartbeat IPC: 0.855036 cumulative IPC: 0.855036 (Simulation time: 0 hr 18 min 59 sec) 
 Total Blocks : 262144 Invalid Blocks : 437
Heartbeat CPU 1 instructions: 10000001 cycles: 11696051 heartbeat IPC: 0.85499 cumulative IPC: 0.85499 (Simulation time: 0 hr 18 min 59 sec) 
 Total Blocks : 262144 Invalid Blocks : 437
Heartbeat CPU 3 instructions: 10000001 cycles: 11697267 heartbeat IPC: 0.854901 cumulative IPC: 0.854901 (Simulation time: 0 hr 18 min 59 sec) 
 Total Blocks : 262144 Invalid Blocks : 437
Heartbeat CPU 4 instructions: 10000001 cycles: 11697404 heartbeat IPC: 0.854891 cumulative IPC: 0.854891 (Simulation time: 0 hr 18 min 59 sec) 
 Total Blocks : 262144 Invalid Blocks : 437
Heartbeat CPU 2 instructions: 10000001 cycles: 11698486 heartbeat IPC: 0.854812 cumulative IPC: 0.854812 (Simulation time: 0 hr 18 min 59 sec) 
 Total Blocks : 262144 Invalid Blocks : 437
Heartbeat CPU 7 instructions: 10000001 cycles: 11698664 heartbeat IPC: 0.854799 cumulative IPC: 0.854799 (Simulation time: 0 hr 19 min 0 sec) 
 Total Blocks : 262144 Invalid Blocks : 437
Heartbeat CPU 5 instructions: 20000001 cycles: 23353437 heartbeat IPC: 0.857661 cumulative IPC: 0.856405 (Simulation time: 0 hr 39 min 4 sec) 
 Total Blocks : 262144 Invalid Blocks : 0
Heartbeat CPU 6 instructions: 20000001 cycles: 23355160 heartbeat IPC: 0.857542 cumulative IPC: 0.856342 (Simulation time: 0 hr 39 min 4 sec) 
 Total Blocks : 262144 Invalid Blocks : 0
Heartbeat CPU 0 instructions: 20000001 cycles: 23357728 heartbeat IPC: 0.857462 cumulative IPC: 0.856248 (Simulation time: 0 hr 39 min 5 sec) 
 Total Blocks : 262144 Invalid Blocks : 0
Heartbeat CPU 1 instructions: 20000001 cycles: 23359070 heartbeat IPC: 0.857411 cumulative IPC: 0.856198 (Simulation time: 0 hr 39 min 6 sec) 
 Total Blocks : 262144 Invalid Blocks : 0
Heartbeat CPU 4 instructions: 20000001 cycles: 23361389 heartbeat IPC: 0.85734 cumulative IPC: 0.856113 (Simulation time: 0 hr 39 min 7 sec) 
 Total Blocks : 262144 Invalid Blocks : 0
Heartbeat CPU 3 instructions: 20000001 cycles: 23361797 heartbeat IPC: 0.8573 cumulative IPC: 0.856099 (Simulation time: 0 hr 39 min 7 sec) 
 Total Blocks : 262144 Invalid Blocks : 0
Heartbeat CPU 7 instructions: 20000001 cycles: 23362710 heartbeat IPC: 0.857335 cumulative IPC: 0.856065 (Simulation time: 0 hr 39 min 7 sec) 
 Total Blocks : 262144 Invalid Blocks : 0
Heartbeat CPU 2 instructions: 20000001 cycles: 23363042 heartbeat IPC: 0.857298 cumulative IPC: 0.856053 (Simulation time: 0 hr 39 min 7 sec) 
 Total Blocks : 262144 Invalid Blocks : 0
Heartbeat CPU 5 instructions: 30000001 cycles: 34997081 heartbeat IPC: 0.858838 cumulative IPC: 0.857214 (Simulation time: 1 hr 0 min 9 sec) 
 Total Blocks : 262144 Invalid Blocks : 0
Heartbeat CPU 6 instructions: 30000001 cycles: 34998975 heartbeat IPC: 0.858825 cumulative IPC: 0.857168 (Simulation time: 1 hr 0 min 9 sec) 
 Total Blocks : 262144 Invalid Blocks : 0
Heartbeat CPU 0 instructions: 30000001 cycles: 35004510 heartbeat IPC: 0.858606 cumulative IPC: 0.857032 (Simulation time: 1 hr 0 min 9 sec) 
 Total Blocks : 262144 Invalid Blocks : 0
Heartbeat CPU 1 instructions: 30000001 cycles: 35006079 heartbeat IPC: 0.85859 cumulative IPC: 0.856994 (Simulation time: 1 hr 0 min 10 sec) 
 Total Blocks : 262144 Invalid Blocks : 0
Heartbeat CPU 4 instructions: 30000001 cycles: 35009429 heartbeat IPC: 0.858514 cumulative IPC: 0.856912 (Simulation time: 1 hr 0 min 10 sec) 
 Total Blocks : 262144 Invalid Blocks : 0
Heartbeat CPU 3 instructions: 30000001 cycles: 35009776 heartbeat IPC: 0.858518 cumulative IPC: 0.856904 (Simulation time: 1 hr 0 min 10 sec) 
 Total Blocks : 262144 Invalid Blocks : 0
Heartbeat CPU 2 instructions: 30000001 cycles: 35011050 heartbeat IPC: 0.858516 cumulative IPC: 0.856872 (Simulation time: 1 hr 0 min 10 sec) 
 Total Blocks : 262144 Invalid Blocks : 0
Heartbeat CPU 7 instructions: 30000001 cycles: 35011108 heartbeat IPC: 0.858487 cumulative IPC: 0.856871 (Simulation time: 1 hr 0 min 10 sec) 
 Total Blocks : 262144 Invalid Blocks : 0
Heartbeat CPU 5 instructions: 40000000 cycles: 46708170 heartbeat IPC: 0.853891 cumulative IPC: 0.856381 (Simulation time: 1 hr 24 min 24 sec) 
 Total Blocks : 262144 Invalid Blocks : 0
Heartbeat CPU 6 instructions: 40000000 cycles: 46710117 heartbeat IPC: 0.853888 cumulative IPC: 0.856346 (Simulation time: 1 hr 24 min 24 sec) 
 Total Blocks : 262144 Invalid Blocks : 0
Heartbeat CPU 0 instructions: 40000000 cycles: 46717884 heartbeat IPC: 0.853725 cumulative IPC: 0.856203 (Simulation time: 1 hr 24 min 24 sec) 
 Total Blocks : 262144 Invalid Blocks : 0
Heartbeat CPU 1 instructions: 40000000 cycles: 46719128 heartbeat IPC: 0.853749 cumulative IPC: 0.85618 (Simulation time: 1 hr 24 min 24 sec) 
 Total Blocks : 262144 Invalid Blocks : 0
Heartbeat CPU 4 instructions: 40000000 cycles: 46724090 heartbeat IPC: 0.853631 cumulative IPC: 0.856089 (Simulation time: 1 hr 24 min 25 sec) 
 Total Blocks : 262144 Invalid Blocks : 0
Heartbeat CPU 3 instructions: 40000000 cycles: 46725022 heartbeat IPC: 0.853588 cumulative IPC: 0.856072 (Simulation time: 1 hr 24 min 25 sec) 
 Total Blocks : 262144 Invalid Blocks : 0
Heartbeat CPU 2 instructions: 40000000 cycles: 46726461 heartbeat IPC: 0.853576 cumulative IPC: 0.856046 (Simulation time: 1 hr 24 min 25 sec) 
 Total Blocks : 262144 Invalid Blocks : 0
Heartbeat CPU 7 instructions: 40000000 cycles: 46726542 heartbeat IPC: 0.853575 cumulative IPC: 0.856045 (Simulation time: 1 hr 24 min 25 sec) 
 Total Blocks : 262144 Invalid Blocks : 0
Heartbeat CPU 5 instructions: 50000003 cycles: 58462521 heartbeat IPC: 0.850749 cumulative IPC: 0.855249 (Simulation time: 1 hr 49 min 12 sec) 
 Total Blocks : 262144 Invalid Blocks : 0
Heartbeat CPU 6 instructions: 50000003 cycles: 58464720 heartbeat IPC: 0.850731 cumulative IPC: 0.855217 (Simulation time: 1 hr 49 min 13 sec) 
 Total Blocks : 262144 Invalid Blocks : 0
Heartbeat CPU 0 instructions: 50000003 cycles: 58474565 heartbeat IPC: 0.85058 cumulative IPC: 0.855073 (Simulation time: 1 hr 49 min 13 sec) 
 Total Blocks : 262144 Invalid Blocks : 0
Heartbeat CPU 1 instructions: 50000003 cycles: 58476489 heartbeat IPC: 0.850531 cumulative IPC: 0.855045 (Simulation time: 1 hr 49 min 13 sec) 
 Total Blocks : 262144 Invalid Blocks : 0
Heartbeat CPU 4 instructions: 50000003 cycles: 58482415 heartbeat IPC: 0.850462 cumulative IPC: 0.854958 (Simulation time: 1 hr 49 min 14 sec) 
 Total Blocks : 262144 Invalid Blocks : 0
Heartbeat CPU 3 instructions: 50000003 cycles: 58483839 heartbeat IPC: 0.850426 cumulative IPC: 0.854937 (Simulation time: 1 hr 49 min 14 sec) 
 Total Blocks : 262144 Invalid Blocks : 0
Heartbeat CPU 2 instructions: 50000003 cycles: 58485354 heartbeat IPC: 0.85042 cumulative IPC: 0.854915 (Simulation time: 1 hr 49 min 14 sec) 
 Total Blocks : 262144 Invalid Blocks : 0
Heartbeat CPU 7 instructions: 50000003 cycles: 58485842 heartbeat IPC: 0.850391 cumulative IPC: 0.854908 (Simulation time: 1 hr 49 min 14 sec) 
 Total Blocks : 262144 Invalid Blocks : 0
Heartbeat CPU 5 instructions: 60000002 cycles: 70183304 heartbeat IPC: 0.853185 cumulative IPC: 0.854904 (Simulation time: 2 hr 17 min 52 sec) 
 Total Blocks : 262144 Invalid Blocks : 0
Heartbeat CPU 6 instructions: 60000002 cycles: 70184974 heartbeat IPC: 0.853224 cumulative IPC: 0.854884 (Simulation time: 2 hr 17 min 52 sec) 
 Total Blocks : 262144 Invalid Blocks : 0
Heartbeat CPU 0 instructions: 60000002 cycles: 70197993 heartbeat IPC: 0.852993 cumulative IPC: 0.854725 (Simulation time: 2 hr 17 min 53 sec) 
 Total Blocks : 262144 Invalid Blocks : 0
Heartbeat CPU 1 instructions: 60000002 cycles: 70199786 heartbeat IPC: 0.853002 cumulative IPC: 0.854703 (Simulation time: 2 hr 17 min 53 sec) 
 Total Blocks : 262144 Invalid Blocks : 0
Heartbeat CPU 4 instructions: 60000002 cycles: 70207052 heartbeat IPC: 0.852905 cumulative IPC: 0.854615 (Simulation time: 2 hr 17 min 54 sec) 
 Total Blocks : 262144 Invalid Blocks : 0
Heartbeat CPU 3 instructions: 60000002 cycles: 70209166 heartbeat IPC: 0.852855 cumulative IPC: 0.854589 (Simulation time: 2 hr 17 min 54 sec) 
 Total Blocks : 262144 Invalid Blocks : 0
Heartbeat CPU 2 instructions: 60000002 cycles: 70210632 heartbeat IPC: 0.852858 cumulative IPC: 0.854571 (Simulation time: 2 hr 17 min 54 sec) 
 Total Blocks : 262144 Invalid Blocks : 0
Heartbeat CPU 7 instructions: 60000002 cycles: 70211016 heartbeat IPC: 0.852866 cumulative IPC: 0.854567 (Simulation time: 2 hr 17 min 54 sec) 
 Total Blocks : 262144 Invalid Blocks : 0
Heartbeat CPU 5 instructions: 70000002 cycles: 82008405 heartbeat IPC: 0.845659 cumulative IPC: 0.853571 (Simulation time: 2 hr 47 min 46 sec) 
 Total Blocks : 262144 Invalid Blocks : 0
Heartbeat CPU 6 instructions: 70000002 cycles: 82010751 heartbeat IPC: 0.84561 cumulative IPC: 0.853547 (Simulation time: 2 hr 47 min 47 sec) 
 Total Blocks : 262144 Invalid Blocks : 0
Heartbeat CPU 0 instructions: 70000002 cycles: 82026716 heartbeat IPC: 0.8454 cumulative IPC: 0.853381 (Simulation time: 2 hr 47 min 54 sec) 
 Total Blocks : 262144 Invalid Blocks : 0
Heartbeat CPU 1 instructions: 70000002 cycles: 82028499 heartbeat IPC: 0.845401 cumulative IPC: 0.853362 (Simulation time: 2 hr 47 min 55 sec) 
 Total Blocks : 262144 Invalid Blocks : 0
Heartbeat CPU 4 instructions: 70000002 cycles: 82036562 heartbeat IPC: 0.845344 cumulative IPC: 0.853278 (Simulation time: 2 hr 48 min 1 sec) 
 Total Blocks : 262144 Invalid Blocks : 0
Heartbeat CPU 3 instructions: 70000002 cycles: 82039275 heartbeat IPC: 0.845301 cumulative IPC: 0.85325 (Simulation time: 2 hr 48 min 3 sec) 
 Total Blocks : 262144 Invalid Blocks : 0
Heartbeat CPU 2 instructions: 70000002 cycles: 82040328 heartbeat IPC: 0.84533 cumulative IPC: 0.853239 (Simulation time: 2 hr 48 min 4 sec) 
 Total Blocks : 262144 Invalid Blocks : 0
Heartbeat CPU 7 instructions: 70000002 cycles: 82041726 heartbeat IPC: 0.845258 cumulative IPC: 0.853224 (Simulation time: 2 hr 48 min 5 sec) 
 Total Blocks : 262144 Invalid Blocks : 0
Heartbeat CPU 5 instructions: 80000001 cycles: 93746179 heartbeat IPC: 0.85195 cumulative IPC: 0.853368 (Simulation time: 3 hr 20 min 29 sec) 
 Total Blocks : 262144 Invalid Blocks : 0
Heartbeat CPU 6 instructions: 80000001 cycles: 93748225 heartbeat IPC: 0.851972 cumulative IPC: 0.85335 (Simulation time: 3 hr 20 min 29 sec) 
 Total Blocks : 262144 Invalid Blocks : 0
Heartbeat CPU 0 instructions: 80000001 cycles: 93767463 heartbeat IPC: 0.851734 cumulative IPC: 0.853174 (Simulation time: 3 hr 20 min 30 sec) 
 Total Blocks : 262144 Invalid Blocks : 0
Heartbeat CPU 1 instructions: 80000001 cycles: 93769254 heartbeat IPC: 0.851734 cumulative IPC: 0.853158 (Simulation time: 3 hr 20 min 31 sec) 
 Total Blocks : 262144 Invalid Blocks : 0
Heartbeat CPU 4 instructions: 80000001 cycles: 93778147 heartbeat IPC: 0.851674 cumulative IPC: 0.853077 (Simulation time: 3 hr 20 min 31 sec) 
 Total Blocks : 262144 Invalid Blocks : 0
Heartbeat CPU 3 instructions: 80000001 cycles: 93781209 heartbeat IPC: 0.851648 cumulative IPC: 0.853049 (Simulation time: 3 hr 20 min 31 sec) 
 Total Blocks : 262144 Invalid Blocks : 0
Heartbeat CPU 2 instructions: 80000001 cycles: 93782665 heartbeat IPC: 0.851619 cumulative IPC: 0.853036 (Simulation time: 3 hr 20 min 32 sec) 
 Total Blocks : 262144 Invalid Blocks : 0
Heartbeat CPU 7 instructions: 80000001 cycles: 93784421 heartbeat IPC: 0.851593 cumulative IPC: 0.85302 (Simulation time: 3 hr 20 min 32 sec) 
 Total Blocks : 262144 Invalid Blocks : 0
Heartbeat CPU 5 instructions: 90000001 cycles: 105538728 heartbeat IPC: 0.847993 cumulative IPC: 0.852768 (Simulation time: 3 hr 54 min 23 sec) 
 Total Blocks : 262144 Invalid Blocks : 0
Heartbeat CPU 6 instructions: 90000001 cycles: 105540756 heartbeat IPC: 0.847994 cumulative IPC: 0.852751 (Simulation time: 3 hr 54 min 23 sec) 
 Total Blocks : 262144 Invalid Blocks : 0
Heartbeat CPU 0 instructions: 90000001 cycles: 105562318 heartbeat IPC: 0.847827 cumulative IPC: 0.852577 (Simulation time: 3 hr 54 min 24 sec) 
 Total Blocks : 262144 Invalid Blocks : 0
Heartbeat CPU 1 instructions: 90000001 cycles: 105564297 heartbeat IPC: 0.847814 cumulative IPC: 0.852561 (Simulation time: 3 hr 54 min 24 sec) 
 Total Blocks : 262144 Invalid Blocks : 0
Heartbeat CPU 4 instructions: 90000001 cycles: 105574454 heartbeat IPC: 0.847723 cumulative IPC: 0.852479 (Simulation time: 3 hr 54 min 25 sec) 
 Total Blocks : 262144 Invalid Blocks : 0
Heartbeat CPU 3 instructions: 90000001 cycles: 105577685 heartbeat IPC: 0.847711 cumulative IPC: 0.852453 (Simulation time: 3 hr 54 min 25 sec) 
 Total Blocks : 262144 Invalid Blocks : 0
Heartbeat CPU 2 instructions: 90000001 cycles: 105579149 heartbeat IPC: 0.84771 cumulative IPC: 0.852441 (Simulation time: 3 hr 54 min 25 sec) 
 Total Blocks : 262144 Invalid Blocks : 0
Heartbeat CPU 7 instructions: 90000001 cycles: 105581017 heartbeat IPC: 0.847702 cumulative IPC: 0.852426 (Simulation time: 3 hr 54 min 25 sec) 
 Total Blocks : 262144 Invalid Blocks : 0
Heartbeat CPU 5 instructions: 100000001 cycles: 117516615 heartbeat IPC: 0.834872 cumulative IPC: 0.850944 (Simulation time: 4 hr 24 min 17 sec) 
 Total Blocks : 262144 Invalid Blocks : 0
Heartbeat CPU 6 instructions: 100000001 cycles: 117518538 heartbeat IPC: 0.834879 cumulative IPC: 0.85093 (Simulation time: 4 hr 24 min 17 sec) 
 Total Blocks : 262144 Invalid Blocks : 0
Heartbeat CPU 0 instructions: 100000001 cycles: 117543320 heartbeat IPC: 0.834655 cumulative IPC: 0.85075 (Simulation time: 4 hr 24 min 18 sec) 
 Total Blocks : 262144 Invalid Blocks : 0
Heartbeat CPU 1 instructions: 100000001 cycles: 117546264 heartbeat IPC: 0.834588 cumulative IPC: 0.850729 (Simulation time: 4 hr 24 min 18 sec) 
 Total Blocks : 262144 Invalid Blocks : 0
Heartbeat CPU 4 instructions: 100000001 cycles: 117556845 heartbeat IPC: 0.834558 cumulative IPC: 0.850652 (Simulation time: 4 hr 24 min 19 sec) 
 Total Blocks : 262144 Invalid Blocks : 0
Heartbeat CPU 3 instructions: 100000001 cycles: 117560467 heartbeat IPC: 0.834531 cumulative IPC: 0.850626 (Simulation time: 4 hr 24 min 19 sec) 
 Total Blocks : 262144 Invalid Blocks : 0
Heartbeat CPU 2 instructions: 100000001 cycles: 117561843 heartbeat IPC: 0.834537 cumulative IPC: 0.850616 (Simulation time: 4 hr 24 min 19 sec) 
 Total Blocks : 262144 Invalid Blocks : 0
Heartbeat CPU 7 instructions: 100000001 cycles: 117563892 heartbeat IPC: 0.834524 cumulative IPC: 0.850601 (Simulation time: 4 hr 24 min 19 sec) 
 Total Blocks : 262144 Invalid Blocks : 0
Heartbeat CPU 5 instructions: 110000000 cycles: 129419564 heartbeat IPC: 0.840128 cumulative IPC: 0.849949 (Simulation time: 4 hr 55 min 51 sec) 
 Total Blocks : 262144 Invalid Blocks : 0
Heartbeat CPU 6 instructions: 110000000 cycles: 129421502 heartbeat IPC: 0.840127 cumulative IPC: 0.849936 (Simulation time: 4 hr 55 min 51 sec) 
 Total Blocks : 262144 Invalid Blocks : 0
Heartbeat CPU 0 instructions: 110000000 cycles: 129448564 heartbeat IPC: 0.839966 cumulative IPC: 0.849758 (Simulation time: 4 hr 55 min 53 sec) 
 Total Blocks : 262144 Invalid Blocks : 0
Heartbeat CPU 1 instructions: 110000000 cycles: 129451731 heartbeat IPC: 0.83995 cumulative IPC: 0.849738 (Simulation time: 4 hr 55 min 53 sec) 
 Total Blocks : 262144 Invalid Blocks : 0
Heartbeat CPU 4 instructions: 110000000 cycles: 129462835 heartbeat IPC: 0.839913 cumulative IPC: 0.849665 (Simulation time: 4 hr 55 min 53 sec) 
 Total Blocks : 262144 Invalid Blocks : 0
Heartbeat CPU 3 instructions: 110000000 cycles: 129466915 heartbeat IPC: 0.839881 cumulative IPC: 0.849638 (Simulation time: 4 hr 55 min 54 sec) 
 Total Blocks : 262144 Invalid Blocks : 0
Heartbeat CPU 2 instructions: 110000000 cycles: 129468530 heartbeat IPC: 0.839864 cumulative IPC: 0.849627 (Simulation time: 4 hr 55 min 54 sec) 
 Total Blocks : 262144 Invalid Blocks : 0
Heartbeat CPU 7 instructions: 110000000 cycles: 129470457 heartbeat IPC: 0.839873 cumulative IPC: 0.849615 (Simulation time: 4 hr 55 min 54 sec) 
 Total Blocks : 262144 Invalid Blocks : 0
Heartbeat CPU 5 instructions: 120000000 cycles: 141377010 heartbeat IPC: 0.836299 cumulative IPC: 0.848794 (Simulation time: 5 hr 27 min 59 sec) 
 Total Blocks : 262144 Invalid Blocks : 0
Heartbeat CPU 6 instructions: 120000000 cycles: 141379151 heartbeat IPC: 0.836285 cumulative IPC: 0.848781 (Simulation time: 5 hr 27 min 59 sec) 
 Total Blocks : 262144 Invalid Blocks : 0
Heartbeat CPU 0 instructions: 120000000 cycles: 141408874 heartbeat IPC: 0.836099 cumulative IPC: 0.848603 (Simulation time: 5 hr 28 min 1 sec) 
 Total Blocks : 262144 Invalid Blocks : 0
Heartbeat CPU 1 instructions: 120000000 cycles: 141412023 heartbeat IPC: 0.8361 cumulative IPC: 0.848584 (Simulation time: 5 hr 28 min 1 sec) 
 Total Blocks : 262144 Invalid Blocks : 0
Heartbeat CPU 4 instructions: 120000000 cycles: 141424315 heartbeat IPC: 0.836017 cumulative IPC: 0.84851 (Simulation time: 5 hr 28 min 2 sec) 
 Total Blocks : 262144 Invalid Blocks : 0
Heartbeat CPU 3 instructions: 120000000 cycles: 141429116 heartbeat IPC: 0.835967 cumulative IPC: 0.848482 (Simulation time: 5 hr 28 min 2 sec) 
 Total Blocks : 262144 Invalid Blocks : 0
Heartbeat CPU 2 instructions: 120000000 cycles: 141431417 heartbeat IPC: 0.835919 cumulative IPC: 0.848468 (Simulation time: 5 hr 28 min 2 sec) 
 Total Blocks : 262144 Invalid Blocks : 0
Heartbeat CPU 7 instructions: 120000000 cycles: 141433086 heartbeat IPC: 0.835937 cumulative IPC: 0.848458 (Simulation time: 5 hr 28 min 2 sec) 
 Total Blocks : 262144 Invalid Blocks : 0
Heartbeat CPU 5 instructions: 130000001 cycles: 153305731 heartbeat IPC: 0.838313 cumulative IPC: 0.847979 (Simulation time: 6 hr 1 min 40 sec) 
 Total Blocks : 262144 Invalid Blocks : 0
Heartbeat CPU 6 instructions: 130000001 cycles: 153308231 heartbeat IPC: 0.838288 cumulative IPC: 0.847965 (Simulation time: 6 hr 1 min 43 sec) 
 Total Blocks : 262144 Invalid Blocks : 0
Heartbeat CPU 0 instructions: 130000001 cycles: 153340918 heartbeat IPC: 0.838079 cumulative IPC: 0.847784 (Simulation time: 6 hr 2 min 13 sec) 
 Total Blocks : 262144 Invalid Blocks : 0
Heartbeat CPU 1 instructions: 130000001 cycles: 153344117 heartbeat IPC: 0.838076 cumulative IPC: 0.847766 (Simulation time: 6 hr 2 min 15 sec) 
 Total Blocks : 262144 Invalid Blocks : 0
Heartbeat CPU 4 instructions: 130000001 cycles: 153358015 heartbeat IPC: 0.837963 cumulative IPC: 0.84769 (Simulation time: 6 hr 2 min 25 sec) 
 Total Blocks : 262144 Invalid Blocks : 0
Heartbeat CPU 3 instructions: 130000001 cycles: 153362568 heartbeat IPC: 0.837981 cumulative IPC: 0.847664 (Simulation time: 6 hr 2 min 27 sec) 
 Total Blocks : 262144 Invalid Blocks : 0
Heartbeat CPU 2 instructions: 130000001 cycles: 153365851 heartbeat IPC: 0.837912 cumulative IPC: 0.847646 (Simulation time: 6 hr 2 min 29 sec) 
 Total Blocks : 262144 Invalid Blocks : 0
Heartbeat CPU 7 instructions: 130000001 cycles: 153367162 heartbeat IPC: 0.837937 cumulative IPC: 0.847639 (Simulation time: 6 hr 2 min 30 sec) 
 Total Blocks : 262144 Invalid Blocks : 0
Heartbeat CPU 5 instructions: 140000001 cycles: 165322492 heartbeat IPC: 0.832171 cumulative IPC: 0.84683 (Simulation time: 6 hr 36 min 29 sec) 
 Total Blocks : 262144 Invalid Blocks : 0
Heartbeat CPU 6 instructions: 140000001 cycles: 165325387 heartbeat IPC: 0.832144 cumulative IPC: 0.846815 (Simulation time: 6 hr 36 min 30 sec) 
 Total Blocks : 262144 Invalid Blocks : 0
Heartbeat CPU 0 instructions: 140000001 cycles: 165361369 heartbeat IPC: 0.831916 cumulative IPC: 0.846631 (Simulation time: 6 hr 37 min 6 sec) 
 Total Blocks : 262144 Invalid Blocks : 0
Heartbeat CPU 1 instructions: 140000001 cycles: 165364105 heartbeat IPC: 0.831948 cumulative IPC: 0.846617 (Simulation time: 6 hr 37 min 8 sec) 
 Total Blocks : 262144 Invalid Blocks : 0
Heartbeat CPU 4 instructions: 140000001 cycles: 165378930 heartbeat IPC: 0.831883 cumulative IPC: 0.846541 (Simulation time: 6 hr 37 min 24 sec) 
 Total Blocks : 262144 Invalid Blocks : 0
Heartbeat CPU 3 instructions: 140000001 cycles: 165383137 heartbeat IPC: 0.831907 cumulative IPC: 0.846519 (Simulation time: 6 hr 37 min 28 sec) 
 Total Blocks : 262144 Invalid Blocks : 0
Heartbeat CPU 2 instructions: 140000001 cycles: 165387027 heartbeat IPC: 0.831865 cumulative IPC: 0.846499 (Simulation time: 6 hr 37 min 30 sec) 
 Total Blocks : 262144 Invalid Blocks : 0
Heartbeat CPU 7 instructions: 140000001 cycles: 165388970 heartbeat IPC: 0.831822 cumulative IPC: 0.846489 (Simulation time: 6 hr 37 min 31 sec) 
 Total Blocks : 262144 Invalid Blocks : 0
Heartbeat CPU 5 instructions: 150000000 cycles: 177357861 heartbeat IPC: 0.830884 cumulative IPC: 0.845748 (Simulation time: 7 hr 13 min 2 sec) 
 Total Blocks : 262144 Invalid Blocks : 0
Heartbeat CPU 6 instructions: 150000000 cycles: 177360999 heartbeat IPC: 0.830868 cumulative IPC: 0.845733 (Simulation time: 7 hr 13 min 2 sec) 
 Total Blocks : 262144 Invalid Blocks : 0
Heartbeat CPU 0 instructions: 150000000 cycles: 177400696 heartbeat IPC: 0.830611 cumulative IPC: 0.845543 (Simulation time: 7 hr 13 min 4 sec) 
 Total Blocks : 262144 Invalid Blocks : 0
Heartbeat CPU 1 instructions: 150000000 cycles: 177403673 heartbeat IPC: 0.830594 cumulative IPC: 0.845529 (Simulation time: 7 hr 13 min 5 sec) 
 Total Blocks : 262144 Invalid Blocks : 0
Heartbeat CPU 4 instructions: 150000000 cycles: 177419588 heartbeat IPC: 0.830519 cumulative IPC: 0.845453 (Simulation time: 7 hr 13 min 5 sec) 
 Total Blocks : 262144 Invalid Blocks : 0
Heartbeat CPU 3 instructions: 150000000 cycles: 177423758 heartbeat IPC: 0.830522 cumulative IPC: 0.845434 (Simulation time: 7 hr 13 min 6 sec) 
 Total Blocks : 262144 Invalid Blocks : 0
Heartbeat CPU 2 instructions: 150000000 cycles: 177428130 heartbeat IPC: 0.830489 cumulative IPC: 0.845413 (Simulation time: 7 hr 13 min 6 sec) 
 Total Blocks : 262144 Invalid Blocks : 0
Heartbeat CPU 7 instructions: 150000000 cycles: 177430434 heartbeat IPC: 0.830464 cumulative IPC: 0.845402 (Simulation time: 7 hr 13 min 6 sec) 
 Total Blocks : 262144 Invalid Blocks : 0
Heartbeat CPU 5 instructions: 160000000 cycles: 189337305 heartbeat IPC: 0.834763 cumulative IPC: 0.845053 (Simulation time: 7 hr 49 min 49 sec) 
 Total Blocks : 262144 Invalid Blocks : 0
Heartbeat CPU 6 instructions: 160000000 cycles: 189340509 heartbeat IPC: 0.834759 cumulative IPC: 0.845038 (Simulation time: 7 hr 49 min 49 sec) 
 Total Blocks : 262144 Invalid Blocks : 0
Heartbeat CPU 0 instructions: 160000000 cycles: 189384769 heartbeat IPC: 0.834441 cumulative IPC: 0.844841 (Simulation time: 7 hr 49 min 51 sec) 
 Total Blocks : 262144 Invalid Blocks : 0
Heartbeat CPU 1 instructions: 160000000 cycles: 189387050 heartbeat IPC: 0.834489 cumulative IPC: 0.844831 (Simulation time: 7 hr 49 min 52 sec) 
 Total Blocks : 262144 Invalid Blocks : 0
Heartbeat CPU 4 instructions: 160000000 cycles: 189404036 heartbeat IPC: 0.834415 cumulative IPC: 0.844755 (Simulation time: 7 hr 49 min 58 sec) 
 Total Blocks : 262144 Invalid Blocks : 0
Heartbeat CPU 3 instructions: 160000000 cycles: 189408168 heartbeat IPC: 0.834417 cumulative IPC: 0.844737 (Simulation time: 7 hr 49 min 59 sec) 
 Total Blocks : 262144 Invalid Blocks : 0
Heartbeat CPU 2 instructions: 160000000 cycles: 189412795 heartbeat IPC: 0.8344 cumulative IPC: 0.844716 (Simulation time: 7 hr 50 min 1 sec) 
 Total Blocks : 262144 Invalid Blocks : 0
Heartbeat CPU 7 instructions: 160000000 cycles: 189415750 heartbeat IPC: 0.834354 cumulative IPC: 0.844703 (Simulation time: 7 hr 50 min 2 sec) 
 Total Blocks : 262144 Invalid Blocks : 0
Heartbeat CPU 5 instructions: 170000003 cycles: 201423606 heartbeat IPC: 0.827383 cumulative IPC: 0.843992 (Simulation time: 8 hr 28 min 36 sec) 
 Total Blocks : 262144 Invalid Blocks : 0
Heartbeat CPU 6 instructions: 170000003 cycles: 201426553 heartbeat IPC: 0.827401 cumulative IPC: 0.84398 (Simulation time: 8 hr 28 min 36 sec) 
 Total Blocks : 262144 Invalid Blocks : 0
Heartbeat CPU 0 instructions: 170000003 cycles: 201475794 heartbeat IPC: 0.82706 cumulative IPC: 0.843774 (Simulation time: 8 hr 28 min 39 sec) 
 Total Blocks : 262144 Invalid Blocks : 0
Heartbeat CPU 1 instructions: 170000003 cycles: 201477821 heartbeat IPC: 0.827077 cumulative IPC: 0.843765 (Simulation time: 8 hr 28 min 39 sec) 
 Total Blocks : 262144 Invalid Blocks : 0
Heartbeat CPU 4 instructions: 170000003 cycles: 201494911 heartbeat IPC: 0.82707 cumulative IPC: 0.843694 (Simulation time: 8 hr 28 min 40 sec) 
 Total Blocks : 262144 Invalid Blocks : 0
Heartbeat CPU 3 instructions: 170000003 cycles: 201499540 heartbeat IPC: 0.827036 cumulative IPC: 0.843674 (Simulation time: 8 hr 28 min 40 sec) 
 Total Blocks : 262144 Invalid Blocks : 0
Heartbeat CPU 2 instructions: 170000003 cycles: 201504139 heartbeat IPC: 0.827038 cumulative IPC: 0.843655 (Simulation time: 8 hr 28 min 40 sec) 
 Total Blocks : 262144 Invalid Blocks : 0
Heartbeat CPU 7 instructions: 170000003 cycles: 201507420 heartbeat IPC: 0.827016 cumulative IPC: 0.843641 (Simulation time: 8 hr 28 min 40 sec) 
 Total Blocks : 262144 Invalid Blocks : 0
Heartbeat CPU 5 instructions: 180000002 cycles: 213539547 heartbeat IPC: 0.825359 cumulative IPC: 0.842935 (Simulation time: 9 hr 6 min 7 sec) 
 Total Blocks : 262144 Invalid Blocks : 0
Heartbeat CPU 6 instructions: 180000002 cycles: 213542707 heartbeat IPC: 0.825344 cumulative IPC: 0.842923 (Simulation time: 9 hr 6 min 8 sec) 
 Total Blocks : 262144 Invalid Blocks : 0
Heartbeat CPU 0 instructions: 180000002 cycles: 213595883 heartbeat IPC: 0.825076 cumulative IPC: 0.842713 (Simulation time: 9 hr 6 min 32 sec) 
 Total Blocks : 262144 Invalid Blocks : 0
Heartbeat CPU 1 instructions: 180000002 cycles: 213597868 heartbeat IPC: 0.825079 cumulative IPC: 0.842705 (Simulation time: 9 hr 6 min 33 sec) 
 Total Blocks : 262144 Invalid Blocks : 0
Heartbeat CPU 4 instructions: 180000002 cycles: 213616081 heartbeat IPC: 0.825003 cumulative IPC: 0.842633 (Simulation time: 9 hr 6 min 49 sec) 
 Total Blocks : 262144 Invalid Blocks : 0
Heartbeat CPU 3 instructions: 180000002 cycles: 213620874 heartbeat IPC: 0.824992 cumulative IPC: 0.842614 (Simulation time: 9 hr 6 min 54 sec) 
 Total Blocks : 262144 Invalid Blocks : 0
Heartbeat CPU 2 instructions: 180000002 cycles: 213625407 heartbeat IPC: 0.824996 cumulative IPC: 0.842596 (Simulation time: 9 hr 7 min 0 sec) 
 Total Blocks : 262144 Invalid Blocks : 0
Heartbeat CPU 7 instructions: 180000002 cycles: 213628717 heartbeat IPC: 0.824994 cumulative IPC: 0.842583 (Simulation time: 9 hr 7 min 4 sec) 
 Total Blocks : 262144 Invalid Blocks : 0
Heartbeat CPU 5 instructions: 190000001 cycles: 225520583 heartbeat IPC: 0.834652 cumulative IPC: 0.842495 (Simulation time: 9 hr 48 min 4 sec) 
 Total Blocks : 262144 Invalid Blocks : 0
Heartbeat CPU 6 instructions: 190000001 cycles: 225523979 heartbeat IPC: 0.834636 cumulative IPC: 0.842483 (Simulation time: 9 hr 48 min 4 sec) 
 Total Blocks : 262144 Invalid Blocks : 0
Heartbeat CPU 0 instructions: 190000001 cycles: 225581177 heartbeat IPC: 0.834356 cumulative IPC: 0.842269 (Simulation time: 9 hr 48 min 12 sec) 
 Total Blocks : 262144 Invalid Blocks : 0
Heartbeat CPU 1 instructions: 190000001 cycles: 225582913 heartbeat IPC: 0.834373 cumulative IPC: 0.842262 (Simulation time: 9 hr 48 min 13 sec) 
 Total Blocks : 262144 Invalid Blocks : 0
Heartbeat CPU 4 instructions: 190000001 cycles: 225601887 heartbeat IPC: 0.83432 cumulative IPC: 0.842192 (Simulation time: 9 hr 48 min 19 sec) 
 Total Blocks : 262144 Invalid Blocks : 0
Heartbeat CPU 3 instructions: 190000001 cycles: 225606927 heartbeat IPC: 0.834303 cumulative IPC: 0.842173 (Simulation time: 9 hr 48 min 21 sec) 
 Total Blocks : 262144 Invalid Blocks : 0
Heartbeat CPU 2 instructions: 190000001 cycles: 225612040 heartbeat IPC: 0.834263 cumulative IPC: 0.842154 (Simulation time: 9 hr 48 min 23 sec) 
 Total Blocks : 262144 Invalid Blocks : 0
Heartbeat CPU 7 instructions: 190000001 cycles: 225614556 heartbeat IPC: 0.834318 cumulative IPC: 0.842144 (Simulation time: 9 hr 48 min 23 sec) 
 Total Blocks : 262144 Invalid Blocks : 0
Heartbeat CPU 5 instructions: 200000000 cycles: 237490156 heartbeat IPC: 0.835452 cumulative IPC: 0.84214 (Simulation time: 10 hr 30 min 21 sec) 
 Total Blocks : 262144 Invalid Blocks : 0
Heartbeat CPU 6 instructions: 200000000 cycles: 237493489 heartbeat IPC: 0.835456 cumulative IPC: 0.842128 (Simulation time: 10 hr 30 min 21 sec) 
 Total Blocks : 262144 Invalid Blocks : 0
Heartbeat CPU 0 instructions: 200000000 cycles: 237555645 heartbeat IPC: 0.83511 cumulative IPC: 0.841908 (Simulation time: 10 hr 30 min 26 sec) 
 Total Blocks : 262144 Invalid Blocks : 0
Heartbeat CPU 1 instructions: 200000000 cycles: 237557503 heartbeat IPC: 0.835102 cumulative IPC: 0.841901 (Simulation time: 10 hr 30 min 26 sec) 
 Total Blocks : 262144 Invalid Blocks : 0
Heartbeat CPU 4 instructions: 200000000 cycles: 237576377 heartbeat IPC: 0.835109 cumulative IPC: 0.841835 (Simulation time: 10 hr 30 min 27 sec) 
 Total Blocks : 262144 Invalid Blocks : 0
Heartbeat CPU 3 instructions: 200000000 cycles: 237582157 heartbeat IPC: 0.835057 cumulative IPC: 0.841814 (Simulation time: 10 hr 30 min 27 sec) 
 Total Blocks : 262144 Invalid Blocks : 0
Heartbeat CPU 2 instructions: 200000000 cycles: 237588333 heartbeat IPC: 0.834983 cumulative IPC: 0.841792 (Simulation time: 10 hr 30 min 28 sec) 
 Total Blocks : 262144 Invalid Blocks : 0
Heartbeat CPU 7 instructions: 200000000 cycles: 237589761 heartbeat IPC: 0.835059 cumulative IPC: 0.841787 (Simulation time: 10 hr 30 min 28 sec) 
 Total Blocks : 262144 Invalid Blocks : 0

Warmup complete CPU 0 instructions: 200028087 cycles: 237589762 (Simulation time: 10 hr 30 min 28 sec) 
Warmup complete CPU 1 instructions: 200026654 cycles: 237589762 (Simulation time: 10 hr 30 min 28 sec) 
Warmup complete CPU 2 instructions: 200001248 cycles: 237589762 (Simulation time: 10 hr 30 min 28 sec) 
Warmup complete CPU 3 instructions: 200006620 cycles: 237589762 (Simulation time: 10 hr 30 min 28 sec) 
Warmup complete CPU 4 instructions: 200011833 cycles: 237589762 (Simulation time: 10 hr 30 min 28 sec) 
Warmup complete CPU 5 instructions: 200079582 cycles: 237589762 (Simulation time: 10 hr 30 min 28 sec) 
Warmup complete CPU 6 instructions: 200077314 cycles: 237589762 (Simulation time: 10 hr 30 min 28 sec) 
Warmup complete CPU 7 instructions: 200000003 cycles: 237589762 (Simulation time: 10 hr 30 min 28 sec) 

Heartbeat CPU 6 instructions: 210000002 cycles: 279357974 heartbeat IPC: 0.238866 cumulative IPC: 0.237566 (Simulation time: 11 hr 24 min 58 sec) 
 Total Blocks : 262144 Invalid Blocks : 0
Heartbeat CPU 5 instructions: 210000002 cycles: 279592971 heartbeat IPC: 0.237514 cumulative IPC: 0.236182 (Simulation time: 11 hr 25 min 15 sec) 
 Total Blocks : 262144 Invalid Blocks : 0
Heartbeat CPU 1 instructions: 210000002 cycles: 280651719 heartbeat IPC: 0.23205 cumulative IPC: 0.231605 (Simulation time: 11 hr 27 min 5 sec) 
 Total Blocks : 262144 Invalid Blocks : 0
Heartbeat CPU 0 instructions: 210000002 cycles: 280768821 heartbeat IPC: 0.231411 cumulative IPC: 0.230943 (Simulation time: 11 hr 27 min 11 sec) 
 Total Blocks : 262144 Invalid Blocks : 0
Heartbeat CPU 4 instructions: 210000002 cycles: 280775587 heartbeat IPC: 0.231486 cumulative IPC: 0.231284 (Simulation time: 11 hr 27 min 11 sec) 
 Total Blocks : 262144 Invalid Blocks : 0
Heartbeat CPU 3 instructions: 210000002 cycles: 280789398 heartbeat IPC: 0.231443 cumulative IPC: 0.23133 (Simulation time: 11 hr 27 min 11 sec) 
 Total Blocks : 262144 Invalid Blocks : 0
Heartbeat CPU 2 instructions: 210000002 cycles: 280800210 heartbeat IPC: 0.231418 cumulative IPC: 0.231397 (Simulation time: 11 hr 27 min 12 sec) 
 Total Blocks : 262144 Invalid Blocks : 0
Heartbeat CPU 7 instructions: 210000002 cycles: 280807779 heartbeat IPC: 0.231385 cumulative IPC: 0.231385 (Simulation time: 11 hr 27 min 12 sec) 
 Total Blocks : 262144 Invalid Blocks : 0
Heartbeat CPU 6 instructions: 220000000 cycles: 319947153 heartbeat IPC: 0.246371 cumulative IPC: 0.241905 (Simulation time: 12 hr 17 min 50 sec) 
 Total Blocks : 262144 Invalid Blocks : 0
Heartbeat CPU 5 instructions: 220000000 cycles: 319974734 heartbeat IPC: 0.247636 cumulative IPC: 0.241797 (Simulation time: 12 hr 17 min 51 sec) 
 Total Blocks : 262144 Invalid Blocks : 0
Heartbeat CPU 1 instructions: 220000000 cycles: 321437570 heartbeat IPC: 0.245183 cumulative IPC: 0.23821 (Simulation time: 12 hr 20 min 25 sec) 
 Total Blocks : 262144 Invalid Blocks : 0
Heartbeat CPU 0 instructions: 220000000 cycles: 322481935 heartbeat IPC: 0.239733 cumulative IPC: 0.235262 (Simulation time: 12 hr 21 min 19 sec) 
 Total Blocks : 262144 Invalid Blocks : 0
Heartbeat CPU 7 instructions: 220000000 cycles: 322856785 heartbeat IPC: 0.237818 cumulative IPC: 0.234557 (Simulation time: 12 hr 21 min 37 sec) 
 Total Blocks : 262144 Invalid Blocks : 0
Heartbeat CPU 4 instructions: 220000000 cycles: 322872621 heartbeat IPC: 0.237546 cumulative IPC: 0.234375 (Simulation time: 12 hr 21 min 38 sec) 
 Total Blocks : 262144 Invalid Blocks : 0
Heartbeat CPU 3 instructions: 220000000 cycles: 322889277 heartbeat IPC: 0.23753 cumulative IPC: 0.23439 (Simulation time: 12 hr 21 min 39 sec) 
 Total Blocks : 262144 Invalid Blocks : 0
Heartbeat CPU 2 instructions: 220000000 cycles: 322938093 heartbeat IPC: 0.237316 cumulative IPC: 0.234319 (Simulation time: 12 hr 21 min 43 sec) 
 Total Blocks : 262144 Invalid Blocks : 0
Heartbeat CPU 6 instructions: 230000002 cycles: 362527928 heartbeat IPC: 0.234848 cumulative IPC: 0.2395 (Simulation time: 13 hr 12 min 59 sec) 
 Total Blocks : 262144 Invalid Blocks : 0
Heartbeat CPU 5 instructions: 230000002 cycles: 362942157 heartbeat IPC: 0.232735 cumulative IPC: 0.23869 (Simulation time: 13 hr 13 min 46 sec) 
 Total Blocks : 262144 Invalid Blocks : 0
Heartbeat CPU 1 instructions: 230000002 cycles: 363450830 heartbeat IPC: 0.23802 cumulative IPC: 0.238146 (Simulation time: 13 hr 14 min 47 sec) 
 Total Blocks : 262144 Invalid Blocks : 0
Heartbeat CPU 0 instructions: 230000002 cycles: 364226654 heartbeat IPC: 0.239551 cumulative IPC: 0.236676 (Simulation time: 13 hr 15 min 40 sec) 
 Total Blocks : 262144 Invalid Blocks : 0
Heartbeat CPU 4 instructions: 230000002 cycles: 366402003 heartbeat IPC: 0.22973 cumulative IPC: 0.232805 (Simulation time: 13 hr 18 min 30 sec) 
 Total Blocks : 262144 Invalid Blocks : 0
Heartbeat CPU 7 instructions: 230000002 cycles: 366405846 heartbeat IPC: 0.229626 cumulative IPC: 0.23289 (Simulation time: 13 hr 18 min 31 sec) 
 Total Blocks : 262144 Invalid Blocks : 0
Heartbeat CPU 3 instructions: 230000002 cycles: 366408748 heartbeat IPC: 0.229782 cumulative IPC: 0.232834 (Simulation time: 13 hr 18 min 31 sec) 
 Total Blocks : 262144 Invalid Blocks : 0
Heartbeat CPU 2 instructions: 230000002 cycles: 366442197 heartbeat IPC: 0.229863 cumulative IPC: 0.232815 (Simulation time: 13 hr 18 min 35 sec) 
 Total Blocks : 262144 Invalid Blocks : 0
Heartbeat CPU 6 instructions: 240000002 cycles: 402469586 heartbeat IPC: 0.250365 cumulative IPC: 0.242132 (Simulation time: 14 hr 3 min 10 sec) 
 Total Blocks : 262144 Invalid Blocks : 0
Heartbeat CPU 5 instructions: 240000002 cycles: 402786394 heartbeat IPC: 0.250977 cumulative IPC: 0.241654 (Simulation time: 14 hr 3 min 50 sec) 
 Total Blocks : 262144 Invalid Blocks : 0
Heartbeat CPU 1 instructions: 240000002 cycles: 405145913 heartbeat IPC: 0.239836 cumulative IPC: 0.238567 (Simulation time: 14 hr 6 min 44 sec) 
 Total Blocks : 262144 Invalid Blocks : 0
Heartbeat CPU 0 instructions: 240000002 cycles: 405322471 heartbeat IPC: 0.243334 cumulative IPC: 0.238307 (Simulation time: 14 hr 6 min 51 sec) 
 Total Blocks : 262144 Invalid Blocks : 0
Heartbeat CPU 4 instructions: 240000002 cycles: 408076096 heartbeat IPC: 0.239957 cumulative IPC: 0.234554 (Simulation time: 14 hr 10 min 33 sec) 
 Total Blocks : 262144 Invalid Blocks : 0
Heartbeat CPU 3 instructions: 240000002 cycles: 408262952 heartbeat IPC: 0.238925 cumulative IPC: 0.234327 (Simulation time: 14 hr 10 min 41 sec) 
 Total Blocks : 262144 Invalid Blocks : 0
Heartbeat CPU 7 instructions: 240000002 cycles: 408311482 heartbeat IPC: 0.238631 cumulative IPC: 0.234299 (Simulation time: 14 hr 10 min 43 sec) 
 Total Blocks : 262144 Invalid Blocks : 0
Heartbeat CPU 2 instructions: 240000002 cycles: 408408056 heartbeat IPC: 0.238289 cumulative IPC: 0.23416 (Simulation time: 14 hr 10 min 48 sec) 
 Total Blocks : 262144 Invalid Blocks : 0
Heartbeat CPU 5 instructions: 250000001 cycles: 444870261 heartbeat IPC: 0.237621 cumulative IPC: 0.240835 (Simulation time: 14 hr 56 min 35 sec) 
 Total Blocks : 262144 Invalid Blocks : 0
Heartbeat CPU 6 instructions: 250000001 cycles: 444884544 heartbeat IPC: 0.235766 cumulative IPC: 0.240829 (Simulation time: 14 hr 56 min 35 sec) 
 Total Blocks : 262144 Invalid Blocks : 0
Heartbeat CPU 1 instructions: 250000001 cycles: 448041338 heartbeat IPC: 0.233125 cumulative IPC: 0.237458 (Simulation time: 15 hr 0 min 34 sec) 
 Total Blocks : 262144 Invalid Blocks : 0
Heartbeat CPU 0 instructions: 250000001 cycles: 448112224 heartbeat IPC: 0.233701 cumulative IPC: 0.237371 (Simulation time: 15 hr 0 min 38 sec) 
 Total Blocks : 262144 Invalid Blocks : 0
Heartbeat CPU 4 instructions: 250000001 cycles: 449726345 heartbeat IPC: 0.240095 cumulative IPC: 0.235641 (Simulation time: 15 hr 3 min 9 sec) 
 Total Blocks : 262144 Invalid Blocks : 0
Heartbeat CPU 3 instructions: 250000001 cycles: 451160618 heartbeat IPC: 0.233113 cumulative IPC: 0.234083 (Simulation time: 15 hr 4 min 31 sec) 
 Total Blocks : 262144 Invalid Blocks : 0
Heartbeat CPU 7 instructions: 250000001 cycles: 451222368 heartbeat IPC: 0.233041 cumulative IPC: 0.234047 (Simulation time: 15 hr 4 min 34 sec) 
 Total Blocks : 262144 Invalid Blocks : 0
Heartbeat CPU 2 instructions: 250000001 cycles: 451253161 heartbeat IPC: 0.233399 cumulative IPC: 0.234007 (Simulation time: 15 hr 4 min 36 sec) 
 Total Blocks : 262144 Invalid Blocks : 0
Heartbeat CPU 5 instructions: 260000003 cycles: 486232310 heartbeat IPC: 0.241768 cumulative IPC: 0.24099 (Simulation time: 15 hr 50 min 15 sec) 
 Total Blocks : 262144 Invalid Blocks : 0
Heartbeat CPU 6 instructions: 260000003 cycles: 486511297 heartbeat IPC: 0.24023 cumulative IPC: 0.240729 (Simulation time: 15 hr 50 min 52 sec) 
 Total Blocks : 262144 Invalid Blocks : 0
Heartbeat CPU 1 instructions: 260000003 cycles: 490502457 heartbeat IPC: 0.23551 cumulative IPC: 0.237131 (Simulation time: 15 hr 55 min 59 sec) 
 Total Blocks : 262144 Invalid Blocks : 0
Heartbeat CPU 0 instructions: 260000003 cycles: 490637766 heartbeat IPC: 0.235153 cumulative IPC: 0.236998 (Simulation time: 15 hr 56 min 6 sec) 
 Total Blocks : 262144 Invalid Blocks : 0
Heartbeat CPU 4 instructions: 260000003 cycles: 490836920 heartbeat IPC: 0.243246 cumulative IPC: 0.236876 (Simulation time: 15 hr 56 min 21 sec) 
 Total Blocks : 262144 Invalid Blocks : 0
Heartbeat CPU 3 instructions: 260000003 cycles: 493712732 heartbeat IPC: 0.235006 cumulative IPC: 0.234237 (Simulation time: 16 hr 0 min 12 sec) 
 Total Blocks : 262144 Invalid Blocks : 0
Heartbeat CPU 2 instructions: 260000003 cycles: 493778648 heartbeat IPC: 0.235153 cumulative IPC: 0.234197 (Simulation time: 16 hr 0 min 17 sec) 
 Total Blocks : 262144 Invalid Blocks : 0
Heartbeat CPU 7 instructions: 260000003 cycles: 493779000 heartbeat IPC: 0.234981 cumulative IPC: 0.234202 (Simulation time: 16 hr 0 min 17 sec) 
 Total Blocks : 262144 Invalid Blocks : 0
Heartbeat CPU 5 instructions: 270000003 cycles: 527260159 heartbeat IPC: 0.243737 cumulative IPC: 0.241379 (Simulation time: 16 hr 44 min 28 sec) 
 Total Blocks : 262144 Invalid Blocks : 0
Heartbeat CPU 6 instructions: 270000003 cycles: 527335609 heartbeat IPC: 0.244952 cumulative IPC: 0.241324 (Simulation time: 16 hr 44 min 31 sec) 
 Total Blocks : 262144 Invalid Blocks : 0
Heartbeat CPU 1 instructions: 270000003 cycles: 531875777 heartbeat IPC: 0.241702 cumulative IPC: 0.237773 (Simulation time: 16 hr 49 min 59 sec) 
 Total Blocks : 262144 Invalid Blocks : 0
Heartbeat CPU 0 instructions: 270000003 cycles: 532992336 heartbeat IPC: 0.236102 cumulative IPC: 0.23687 (Simulation time: 16 hr 52 min 29 sec) 
 Total Blocks : 262144 Invalid Blocks : 0
Heartbeat CPU 4 instructions: 270000003 cycles: 533377081 heartbeat IPC: 0.235072 cumulative IPC: 0.236617 (Simulation time: 16 hr 52 min 44 sec) 
 Total Blocks : 262144 Invalid Blocks : 0
Heartbeat CPU 3 instructions: 270000003 cycles: 536395627 heartbeat IPC: 0.234286 cumulative IPC: 0.234244 (Simulation time: 16 hr 56 min 41 sec) 
 Total Blocks : 262144 Invalid Blocks : 0
Heartbeat CPU 7 instructions: 270000003 cycles: 536464006 heartbeat IPC: 0.234274 cumulative IPC: 0.234212 (Simulation time: 16 hr 56 min 43 sec) 
 Total Blocks : 262144 Invalid Blocks : 0
Heartbeat CPU 2 instructions: 270000003 cycles: 536489305 heartbeat IPC: 0.234134 cumulative IPC: 0.234188 (Simulation time: 16 hr 56 min 44 sec) 
 Total Blocks : 262144 Invalid Blocks : 0
Heartbeat CPU 5 instructions: 280000000 cycles: 569408830 heartbeat IPC: 0.237255 cumulative IPC: 0.240855 (Simulation time: 17 hr 40 min 44 sec) 
 Total Blocks : 262144 Invalid Blocks : 0
Heartbeat CPU 6 instructions: 280000000 cycles: 569454158 heartbeat IPC: 0.237425 cumulative IPC: 0.240829 (Simulation time: 17 hr 40 min 48 sec) 
 Total Blocks : 262144 Invalid Blocks : 0
Heartbeat CPU 1 instructions: 280000000 cycles: 573081761 heartbeat IPC: 0.242683 cumulative IPC: 0.238376 (Simulation time: 17 hr 45 min 30 sec) 
 Total Blocks : 262144 Invalid Blocks : 0
Heartbeat CPU 0 instructions: 280000000 cycles: 573985099 heartbeat IPC: 0.243945 cumulative IPC: 0.237732 (Simulation time: 17 hr 46 min 19 sec) 
 Total Blocks : 262144 Invalid Blocks : 0
Heartbeat CPU 4 instructions: 280000000 cycles: 575995416 heartbeat IPC: 0.234641 cumulative IPC: 0.236368 (Simulation time: 17 hr 49 min 22 sec) 
 Total Blocks : 262144 Invalid Blocks : 0
Heartbeat CPU 7 instructions: 280000000 cycles: 579045329 heartbeat IPC: 0.234845 cumulative IPC: 0.234291 (Simulation time: 17 hr 53 min 19 sec) 
 Total Blocks : 262144 Invalid Blocks : 0
Heartbeat CPU 3 instructions: 280000000 cycles: 579054400 heartbeat IPC: 0.234418 cumulative IPC: 0.234265 (Simulation time: 17 hr 53 min 20 sec) 
 Total Blocks : 262144 Invalid Blocks : 0
Heartbeat CPU 2 instructions: 280000000 cycles: 579092477 heartbeat IPC: 0.234724 cumulative IPC: 0.234255 (Simulation time: 17 hr 53 min 22 sec) 
 Total Blocks : 262144 Invalid Blocks : 0
Heartbeat CPU 5 instructions: 290000001 cycles: 609774770 heartbeat IPC: 0.247734 cumulative IPC: 0.241601 (Simulation time: 18 hr 34 min 47 sec) 
 Total Blocks : 262144 Invalid Blocks : 0
Heartbeat CPU 6 instructions: 290000001 cycles: 609993459 heartbeat IPC: 0.246674 cumulative IPC: 0.241466 (Simulation time: 18 hr 35 min 12 sec) 
 Total Blocks : 262144 Invalid Blocks : 0
Heartbeat CPU 1 instructions: 290000001 cycles: 614811626 heartbeat IPC: 0.239637 cumulative IPC: 0.238516 (Simulation time: 18 hr 40 min 46 sec) 
 Total Blocks : 262144 Invalid Blocks : 0
Heartbeat CPU 0 instructions: 290000001 cycles: 614912229 heartbeat IPC: 0.244337 cumulative IPC: 0.238448 (Simulation time: 18 hr 40 min 50 sec) 
 Total Blocks : 262144 Invalid Blocks : 0
Heartbeat CPU 4 instructions: 290000001 cycles: 617882891 heartbeat IPC: 0.238735 cumulative IPC: 0.236628 (Simulation time: 18 hr 45 min 0 sec) 
 Total Blocks : 262144 Invalid Blocks : 0
Heartbeat CPU 3 instructions: 290000001 cycles: 620953985 heartbeat IPC: 0.238666 cumulative IPC: 0.234746 (Simulation time: 18 hr 49 min 9 sec) 
 Total Blocks : 262144 Invalid Blocks : 0
Heartbeat CPU 2 instructions: 290000001 cycles: 621032224 heartbeat IPC: 0.238437 cumulative IPC: 0.234713 (Simulation time: 18 hr 49 min 14 sec) 
 Total Blocks : 262144 Invalid Blocks : 0
Heartbeat CPU 7 instructions: 290000001 cycles: 621051663 heartbeat IPC: 0.238059 cumulative IPC: 0.234704 (Simulation time: 18 hr 49 min 15 sec) 
 Total Blocks : 262144 Invalid Blocks : 0
Heartbeat CPU 5 instructions: 300000000 cycles: 650684302 heartbeat IPC: 0.244442 cumulative IPC: 0.241883 (Simulation time: 19 hr 28 min 50 sec) 
 Total Blocks : 262144 Invalid Blocks : 0
Heartbeat CPU 6 instructions: 300000000 cycles: 650688048 heartbeat IPC: 0.245733 cumulative IPC: 0.241886 (Simulation time: 19 hr 28 min 50 sec) 
 Total Blocks : 262144 Invalid Blocks : 0
Heartbeat CPU 1 instructions: 300000000 cycles: 657181248 heartbeat IPC: 0.236018 cumulative IPC: 0.238264 (Simulation time: 19 hr 37 min 41 sec) 
 Total Blocks : 262144 Invalid Blocks : 0
Heartbeat CPU 0 instructions: 300000000 cycles: 657251032 heartbeat IPC: 0.23619 cumulative IPC: 0.23822 (Simulation time: 19 hr 37 min 44 sec) 
 Total Blocks : 262144 Invalid Blocks : 0
Heartbeat CPU 4 instructions: 300000000 cycles: 660475437 heartbeat IPC: 0.234783 cumulative IPC: 0.236443 (Simulation time: 19 hr 42 min 18 sec) 
 Total Blocks : 262144 Invalid Blocks : 0
Heartbeat CPU 3 instructions: 300000000 cycles: 662604053 heartbeat IPC: 0.240096 cumulative IPC: 0.235271 (Simulation time: 19 hr 45 min 31 sec) 
 Total Blocks : 262144 Invalid Blocks : 0
Heartbeat CPU 7 instructions: 300000000 cycles: 663343743 heartbeat IPC: 0.236451 cumulative IPC: 0.234877 (Simulation time: 19 hr 46 min 16 sec) 
 Total Blocks : 262144 Invalid Blocks : 0
Heartbeat CPU 2 instructions: 300000000 cycles: 663400975 heartbeat IPC: 0.236023 cumulative IPC: 0.234843 (Simulation time: 19 hr 46 min 19 sec) 
 Total Blocks : 262144 Invalid Blocks : 0
Heartbeat CPU 6 instructions: 310000001 cycles: 690725360 heartbeat IPC: 0.249767 cumulative IPC: 0.242582 (Simulation time: 20 hr 22 min 46 sec) 
 Total Blocks : 262144 Invalid Blocks : 0
Heartbeat CPU 5 instructions: 310000001 cycles: 690743352 heartbeat IPC: 0.249632 cumulative IPC: 0.242568 (Simulation time: 20 hr 22 min 47 sec) 
 Total Blocks : 262144 Invalid Blocks : 0
Heartbeat CPU 1 instructions: 310000001 cycles: 697410894 heartbeat IPC: 0.248573 cumulative IPC: 0.239165 (Simulation time: 20 hr 31 min 27 sec) 
 Total Blocks : 262144 Invalid Blocks : 0
Heartbeat CPU 0 instructions: 310000001 cycles: 697447605 heartbeat IPC: 0.248777 cumulative IPC: 0.239143 (Simulation time: 20 hr 31 min 29 sec) 
 Total Blocks : 262144 Invalid Blocks : 0
Heartbeat CPU 4 instructions: 310000001 cycles: 700777576 heartbeat IPC: 0.248126 cumulative IPC: 0.237459 (Simulation time: 20 hr 35 min 41 sec) 
 Total Blocks : 262144 Invalid Blocks : 0
Heartbeat CPU 3 instructions: 310000001 cycles: 701337224 heartbeat IPC: 0.258177 cumulative IPC: 0.237184 (Simulation time: 20 hr 36 min 32 sec) 
 Total Blocks : 262144 Invalid Blocks : 0
Heartbeat CPU 7 instructions: 310000001 cycles: 702909820 heartbeat IPC: 0.252742 cumulative IPC: 0.236396 (Simulation time: 20 hr 38 min 40 sec) 
 Total Blocks : 262144 Invalid Blocks : 0
Heartbeat CPU 2 instructions: 310000001 cycles: 703348735 heartbeat IPC: 0.250327 cumulative IPC: 0.236171 (Simulation time: 20 hr 38 min 50 sec) 
 Total Blocks : 262144 Invalid Blocks : 0
Heartbeat CPU 6 instructions: 320000000 cycles: 731150165 heartbeat IPC: 0.247373 cumulative IPC: 0.242975 (Simulation time: 21 hr 12 min 42 sec) 
 Total Blocks : 262144 Invalid Blocks : 0
Heartbeat CPU 5 instructions: 320000000 cycles: 731250450 heartbeat IPC: 0.24687 cumulative IPC: 0.242921 (Simulation time: 21 hr 12 min 45 sec) 
 Total Blocks : 262144 Invalid Blocks : 0
Heartbeat CPU 1 instructions: 320000000 cycles: 738360725 heartbeat IPC: 0.244201 cumulative IPC: 0.239577 (Simulation time: 21 hr 20 min 4 sec) 
 Total Blocks : 262144 Invalid Blocks : 0
Heartbeat CPU 0 instructions: 320000000 cycles: 738370293 heartbeat IPC: 0.244363 cumulative IPC: 0.23957 (Simulation time: 21 hr 20 min 4 sec) 
 Total Blocks : 262144 Invalid Blocks : 0
Heartbeat CPU 4 instructions: 320000000 cycles: 741610552 heartbeat IPC: 0.2449 cumulative IPC: 0.238062 (Simulation time: 21 hr 23 min 38 sec) 
 Total Blocks : 262144 Invalid Blocks : 0
Heartbeat CPU 3 instructions: 320000000 cycles: 741666579 heartbeat IPC: 0.247958 cumulative IPC: 0.238046 (Simulation time: 21 hr 23 min 42 sec) 
 Total Blocks : 262144 Invalid Blocks : 0
Heartbeat CPU 7 instructions: 320000000 cycles: 742683976 heartbeat IPC: 0.25142 cumulative IPC: 0.237579 (Simulation time: 21 hr 24 min 44 sec) 
 Total Blocks : 262144 Invalid Blocks : 0
Heartbeat CPU 2 instructions: 320000000 cycles: 744014147 heartbeat IPC: 0.245909 cumulative IPC: 0.236953 (Simulation time: 21 hr 26 min 23 sec) 
 Total Blocks : 262144 Invalid Blocks : 0
Heartbeat CPU 6 instructions: 330000000 cycles: 770246928 heartbeat IPC: 0.255776 cumulative IPC: 0.243914 (Simulation time: 22 hr 2 min 52 sec) 
 Total Blocks : 262144 Invalid Blocks : 0
Heartbeat CPU 5 instructions: 330000000 cycles: 770397249 heartbeat IPC: 0.255449 cumulative IPC: 0.243841 (Simulation time: 22 hr 2 min 58 sec) 
 Total Blocks : 262144 Invalid Blocks : 0
Heartbeat CPU 1 instructions: 330000000 cycles: 778476219 heartbeat IPC: 0.24928 cumulative IPC: 0.240297 (Simulation time: 22 hr 12 min 15 sec) 
 Total Blocks : 262144 Invalid Blocks : 0
Heartbeat CPU 0 instructions: 330000000 cycles: 778567074 heartbeat IPC: 0.248776 cumulative IPC: 0.240254 (Simulation time: 22 hr 12 min 22 sec) 
 Total Blocks : 262144 Invalid Blocks : 0
Heartbeat CPU 4 instructions: 330000000 cycles: 781826608 heartbeat IPC: 0.248657 cumulative IPC: 0.238845 (Simulation time: 22 hr 16 min 0 sec) 
 Total Blocks : 262144 Invalid Blocks : 0
Heartbeat CPU 3 instructions: 330000000 cycles: 781877281 heartbeat IPC: 0.24869 cumulative IPC: 0.238832 (Simulation time: 22 hr 16 min 2 sec) 
 Total Blocks : 262144 Invalid Blocks : 0
Heartbeat CPU 7 instructions: 330000000 cycles: 782316952 heartbeat IPC: 0.252315 cumulative IPC: 0.238652 (Simulation time: 22 hr 16 min 21 sec) 
 Total Blocks : 262144 Invalid Blocks : 0
Heartbeat CPU 2 instructions: 330000000 cycles: 783374279 heartbeat IPC: 0.254064 cumulative IPC: 0.238187 (Simulation time: 22 hr 16 min 59 sec) 
 Total Blocks : 262144 Invalid Blocks : 0
Heartbeat CPU 6 instructions: 340000002 cycles: 809969183 heartbeat IPC: 0.251748 cumulative IPC: 0.244458 (Simulation time: 22 hr 47 min 16 sec) 
 Total Blocks : 262144 Invalid Blocks : 0
Heartbeat CPU 5 instructions: 340000002 cycles: 810038557 heartbeat IPC: 0.252262 cumulative IPC: 0.244424 (Simulation time: 22 hr 47 min 19 sec) 
 Total Blocks : 262144 Invalid Blocks : 0
Heartbeat CPU 1 instructions: 340000002 cycles: 818014120 heartbeat IPC: 0.252922 cumulative IPC: 0.241157 (Simulation time: 22 hr 55 min 24 sec) 
 Total Blocks : 262144 Invalid Blocks : 0
Heartbeat CPU 0 instructions: 340000002 cycles: 818624337 heartbeat IPC: 0.249643 cumulative IPC: 0.240901 (Simulation time: 22 hr 56 min 15 sec) 
 Total Blocks : 262144 Invalid Blocks : 0
Heartbeat CPU 4 instructions: 340000002 cycles: 822429404 heartbeat IPC: 0.246289 cumulative IPC: 0.239362 (Simulation time: 23 hr 1 min 4 sec) 
 Total Blocks : 262144 Invalid Blocks : 0
Heartbeat CPU 3 instructions: 340000002 cycles: 822546676 heartbeat IPC: 0.245885 cumulative IPC: 0.239323 (Simulation time: 23 hr 1 min 11 sec) 
 Total Blocks : 262144 Invalid Blocks : 0
Heartbeat CPU 7 instructions: 340000002 cycles: 822748125 heartbeat IPC: 0.247334 cumulative IPC: 0.239251 (Simulation time: 23 hr 1 min 20 sec) 
 Total Blocks : 262144 Invalid Blocks : 0
Heartbeat CPU 2 instructions: 340000002 cycles: 822906310 heartbeat IPC: 0.252959 cumulative IPC: 0.239185 (Simulation time: 23 hr 1 min 24 sec) 
 Total Blocks : 262144 Invalid Blocks : 0
Heartbeat CPU 6 instructions: 350000002 cycles: 850154989 heartbeat IPC: 0.248844 cumulative IPC: 0.244746 (Simulation time: 23 hr 31 min 53 sec) 
 Total Blocks : 262144 Invalid Blocks : 0
Heartbeat CPU 5 instructions: 350000002 cycles: 850327497 heartbeat IPC: 0.248207 cumulative IPC: 0.244673 (Simulation time: 23 hr 32 min 13 sec) 
 Total Blocks : 262144 Invalid Blocks : 0
Heartbeat CPU 1 instructions: 350000002 cycles: 857380682 heartbeat IPC: 0.254023 cumulative IPC: 0.241974 (Simulation time: 23 hr 40 min 27 sec) 
 Total Blocks : 262144 Invalid Blocks : 0
Heartbeat CPU 0 instructions: 350000002 cycles: 857805397 heartbeat IPC: 0.255225 cumulative IPC: 0.241806 (Simulation time: 23 hr 40 min 47 sec) 
 Total Blocks : 262144 Invalid Blocks : 0
Heartbeat CPU 4 instructions: 350000002 cycles: 863169918 heartbeat IPC: 0.245456 cumulative IPC: 0.239759 (Simulation time: 23 hr 46 min 59 sec) 
 Total Blocks : 262144 Invalid Blocks : 0
Heartbeat CPU 3 instructions: 350000002 cycles: 863243596 heartbeat IPC: 0.245719 cumulative IPC: 0.239739 (Simulation time: 23 hr 47 min 8 sec) 
 Total Blocks : 262144 Invalid Blocks : 0
Heartbeat CPU 7 instructions: 350000002 cycles: 863321472 heartbeat IPC: 0.246467 cumulative IPC: 0.239719 (Simulation time: 23 hr 47 min 15 sec) 
 Total Blocks : 262144 Invalid Blocks : 0
Heartbeat CPU 2 instructions: 350000002 cycles: 863368332 heartbeat IPC: 0.247145 cumulative IPC: 0.239699 (Simulation time: 23 hr 47 min 19 sec) 
 Total Blocks : 262144 Invalid Blocks : 0
Heartbeat CPU 6 instructions: 360000003 cycles: 889095163 heartbeat IPC: 0.256804 cumulative IPC: 0.245466 (Simulation time: 24 hr 16 min 36 sec) 
 Total Blocks : 262144 Invalid Blocks : 0
Heartbeat CPU 5 instructions: 360000003 cycles: 889403322 heartbeat IPC: 0.255913 cumulative IPC: 0.245347 (Simulation time: 24 hr 16 min 57 sec) 
 Total Blocks : 262144 Invalid Blocks : 0
Heartbeat CPU 1 instructions: 360000003 cycles: 897630797 heartbeat IPC: 0.248447 cumulative IPC: 0.242369 (Simulation time: 24 hr 26 min 15 sec) 
 Total Blocks : 262144 Invalid Blocks : 0
Heartbeat CPU 0 instructions: 360000003 cycles: 897711727 heartbeat IPC: 0.250587 cumulative IPC: 0.242337 (Simulation time: 24 hr 26 min 26 sec) 
 Total Blocks : 262144 Invalid Blocks : 0
Heartbeat CPU 4 instructions: 360000003 cycles: 903531862 heartbeat IPC: 0.247758 cumulative IPC: 0.240243 (Simulation time: 24 hr 32 min 24 sec) 
 Total Blocks : 262144 Invalid Blocks : 0
Heartbeat CPU 3 instructions: 360000003 cycles: 903791108 heartbeat IPC: 0.246624 cumulative IPC: 0.240158 (Simulation time: 24 hr 32 min 58 sec) 
 Total Blocks : 262144 Invalid Blocks : 0
Heartbeat CPU 7 instructions: 360000003 cycles: 903882328 heartbeat IPC: 0.246543 cumulative IPC: 0.240135 (Simulation time: 24 hr 33 min 10 sec) 
 Total Blocks : 262144 Invalid Blocks : 0
Heartbeat CPU 2 instructions: 360000003 cycles: 904006065 heartbeat IPC: 0.246077 cumulative IPC: 0.240088 (Simulation time: 24 hr 33 min 27 sec) 
 Total Blocks : 262144 Invalid Blocks : 0
Heartbeat CPU 6 instructions: 370000001 cycles: 928975844 heartbeat IPC: 0.250748 cumulative IPC: 0.245771 (Simulation time: 25 hr 6 min 53 sec) 
 Total Blocks : 262144 Invalid Blocks : 0
Heartbeat CPU 5 instructions: 370000001 cycles: 928999198 heartbeat IPC: 0.252551 cumulative IPC: 0.245759 (Simulation time: 25 hr 6 min 55 sec) 
 Total Blocks : 262144 Invalid Blocks : 0
Heartbeat CPU 1 instructions: 370000001 cycles: 938623729 heartbeat IPC: 0.243944 cumulative IPC: 0.242461 (Simulation time: 25 hr 21 min 42 sec) 
 Total Blocks : 262144 Invalid Blocks : 0
Heartbeat CPU 0 instructions: 370000001 cycles: 938659273 heartbeat IPC: 0.244215 cumulative IPC: 0.242447 (Simulation time: 25 hr 21 min 45 sec) 
 Total Blocks : 262144 Invalid Blocks : 0
Heartbeat CPU 4 instructions: 370000001 cycles: 942905917 heartbeat IPC: 0.253974 cumulative IPC: 0.24101 (Simulation time: 25 hr 29 min 28 sec) 
 Total Blocks : 262144 Invalid Blocks : 0
Heartbeat CPU 3 instructions: 370000001 cycles: 944631235 heartbeat IPC: 0.244857 cumulative IPC: 0.240429 (Simulation time: 25 hr 31 min 20 sec) 
 Total Blocks : 262144 Invalid Blocks : 0
Heartbeat CPU 7 instructions: 370000001 cycles: 945060552 heartbeat IPC: 0.242847 cumulative IPC: 0.240293 (Simulation time: 25 hr 31 min 38 sec) 
 Total Blocks : 262144 Invalid Blocks : 0
Heartbeat CPU 2 instructions: 370000001 cycles: 945110005 heartbeat IPC: 0.243286 cumulative IPC: 0.240274 (Simulation time: 25 hr 31 min 41 sec) 
 Total Blocks : 262144 Invalid Blocks : 0
Heartbeat CPU 6 instructions: 380000000 cycles: 969762732 heartbeat IPC: 0.245177 cumulative IPC: 0.245738 (Simulation time: 26 hr 10 min 54 sec) 
 Total Blocks : 262144 Invalid Blocks : 0
Heartbeat CPU 5 instructions: 380000000 cycles: 969769927 heartbeat IPC: 0.245274 cumulative IPC: 0.245732 (Simulation time: 26 hr 10 min 54 sec) 
 Total Blocks : 262144 Invalid Blocks : 0
Heartbeat CPU 1 instructions: 380000000 cycles: 979815468 heartbeat IPC: 0.242767 cumulative IPC: 0.242478 (Simulation time: 26 hr 26 min 34 sec) 
 Total Blocks : 262144 Invalid Blocks : 0
Heartbeat CPU 0 instructions: 380000000 cycles: 979820223 heartbeat IPC: 0.242949 cumulative IPC: 0.242474 (Simulation time: 26 hr 26 min 35 sec) 
 Total Blocks : 262144 Invalid Blocks : 0
Heartbeat CPU 4 instructions: 380000000 cycles: 983097273 heartbeat IPC: 0.24881 cumulative IPC: 0.24143 (Simulation time: 26 hr 31 min 54 sec) 
 Total Blocks : 262144 Invalid Blocks : 0
Heartbeat CPU 3 instructions: 380000000 cycles: 984863019 heartbeat IPC: 0.24856 cumulative IPC: 0.240867 (Simulation time: 26 hr 35 min 32 sec) 
 Total Blocks : 262144 Invalid Blocks : 0
Heartbeat CPU 7 instructions: 380000000 cycles: 986151646 heartbeat IPC: 0.243362 cumulative IPC: 0.240461 (Simulation time: 26 hr 36 min 51 sec) 
 Total Blocks : 262144 Invalid Blocks : 0
Heartbeat CPU 2 instructions: 380000000 cycles: 986208034 heartbeat IPC: 0.243321 cumulative IPC: 0.240441 (Simulation time: 26 hr 36 min 57 sec) 
 Total Blocks : 262144 Invalid Blocks : 0
Heartbeat CPU 5 instructions: 390000002 cycles: 1009107039 heartbeat IPC: 0.254213 cumulative IPC: 0.246165 (Simulation time: 27 hr 13 min 38 sec) 
 Total Blocks : 262144 Invalid Blocks : 0
Heartbeat CPU 6 instructions: 390000002 cycles: 1009171952 heartbeat IPC: 0.253748 cumulative IPC: 0.246147 (Simulation time: 27 hr 13 min 48 sec) 
 Total Blocks : 262144 Invalid Blocks : 0
Heartbeat CPU 1 instructions: 390000002 cycles: 1020207109 heartbeat IPC: 0.247576 cumulative IPC: 0.242741 (Simulation time: 27 hr 32 min 41 sec) 
 Total Blocks : 262144 Invalid Blocks : 0
Heartbeat CPU 0 instructions: 390000002 cycles: 1020323979 heartbeat IPC: 0.246891 cumulative IPC: 0.242703 (Simulation time: 27 hr 32 min 48 sec) 
 Total Blocks : 262144 Invalid Blocks : 0
Heartbeat CPU 4 instructions: 390000002 cycles: 1023534071 heartbeat IPC: 0.2473 cumulative IPC: 0.241732 (Simulation time: 27 hr 37 min 57 sec) 
 Total Blocks : 262144 Invalid Blocks : 0
Heartbeat CPU 3 instructions: 390000002 cycles: 1024416909 heartbeat IPC: 0.25282 cumulative IPC: 0.241468 (Simulation time: 27 hr 38 min 29 sec) 
 Total Blocks : 262144 Invalid Blocks : 0
Heartbeat CPU 7 instructions: 390000002 cycles: 1026694768 heartbeat IPC: 0.246651 cumulative IPC: 0.240779 (Simulation time: 27 hr 43 min 4 sec) 
 Total Blocks : 262144 Invalid Blocks : 0
Heartbeat CPU 2 instructions: 390000002 cycles: 1026748472 heartbeat IPC: 0.246667 cumulative IPC: 0.240761 (Simulation time: 27 hr 43 min 6 sec) 
 Total Blocks : 262144 Invalid Blocks : 0
Heartbeat CPU 6 instructions: 400000003 cycles: 1048928349 heartbeat IPC: 0.251532 cumulative IPC: 0.246411 (Simulation time: 28 hr 18 min 56 sec) 
 Total Blocks : 262144 Invalid Blocks : 0
Heartbeat CPU 5 instructions: 400000003 cycles: 1048934641 heartbeat IPC: 0.251082 cumulative IPC: 0.246406 (Simulation time: 28 hr 18 min 56 sec) 
 Total Blocks : 262144 Invalid Blocks : 0
Finished CPU 6 instructions: 200000003 cycles: 811594477 cumulative IPC: 0.246428 (Simulation time: 28 hr 19 min 5 sec) 
Finished CPU 5 instructions: 200000000 cycles: 811606667 cumulative IPC: 0.246425 (Simulation time: 28 hr 19 min 6 sec) 
Heartbeat CPU 1 instructions: 400000003 cycles: 1060002015 heartbeat IPC: 0.251288 cumulative IPC: 0.243155 (Simulation time: 28 hr 37 min 14 sec) 
 Total Blocks : 262144 Invalid Blocks : 0
Finished CPU 1 instructions: 200000002 cycles: 822501019 cumulative IPC: 0.243161 (Simulation time: 28 hr 37 min 32 sec) 
Heartbeat CPU 0 instructions: 400000003 cycles: 1060986583 heartbeat IPC: 0.245926 cumulative IPC: 0.242862 (Simulation time: 28 hr 39 min 12 sec) 
 Total Blocks : 262144 Invalid Blocks : 0
Finished CPU 0 instructions: 200000000 cycles: 823490052 cumulative IPC: 0.242869 (Simulation time: 28 hr 39 min 16 sec) 
Heartbeat CPU 4 instructions: 400000003 cycles: 1064632384 heartbeat IPC: 0.243319 cumulative IPC: 0.241811 (Simulation time: 28 hr 44 min 54 sec) 
 Total Blocks : 262144 Invalid Blocks : 0
Finished CPU 4 instructions: 200000000 cycles: 827080027 cumulative IPC: 0.241815 (Simulation time: 28 hr 44 min 57 sec) 
Heartbeat CPU 3 instructions: 400000003 cycles: 1064798605 heartbeat IPC: 0.247637 cumulative IPC: 0.241769 (Simulation time: 28 hr 45 min 5 sec) 
 Total Blocks : 262144 Invalid Blocks : 0
Finished CPU 3 instructions: 200000000 cycles: 827230508 cumulative IPC: 0.241771 (Simulation time: 28 hr 45 min 7 sec) 
Heartbeat CPU 7 instructions: 400000003 cycles: 1067840555 heartbeat IPC: 0.243038 cumulative IPC: 0.240891 (Simulation time: 28 hr 50 min 11 sec) 
 Total Blocks : 262144 Invalid Blocks : 0
Finished CPU 7 instructions: 200000000 cycles: 830250793 cumulative IPC: 0.240891 (Simulation time: 28 hr 50 min 11 sec) 
Heartbeat CPU 2 instructions: 400000003 cycles: 1067875298 heartbeat IPC: 0.24315 cumulative IPC: 0.240879 (Simulation time: 28 hr 50 min 13 sec) 
 Total Blocks : 262144 Invalid Blocks : 0
Finished CPU 2 instructions: 200000003 cycles: 830289756 cumulative IPC: 0.24088 (Simulation time: 28 hr 50 min 13 sec) 

CPU 0 Branch Prediction Accuracy: 85.1417% MPKI: 28.3038 Average ROB Occupancy at Mispredict: 34.9901

CPU 1 Branch Prediction Accuracy: 85.1449% MPKI: 28.2989 Average ROB Occupancy at Mispredict: 34.9848

CPU 2 Branch Prediction Accuracy: 85.1426% MPKI: 28.3063 Average ROB Occupancy at Mispredict: 35.009

CPU 3 Branch Prediction Accuracy: 85.1441% MPKI: 28.3037 Average ROB Occupancy at Mispredict: 35.0066

CPU 4 Branch Prediction Accuracy: 85.1433% MPKI: 28.3042 Average ROB Occupancy at Mispredict: 34.9973

CPU 5 Branch Prediction Accuracy: 85.1471% MPKI: 28.2883 Average ROB Occupancy at Mispredict: 34.9059

CPU 6 Branch Prediction Accuracy: 85.1471% MPKI: 28.2888 Average ROB Occupancy at Mispredict: 34.9044

CPU 7 Branch Prediction Accuracy: 85.1423% MPKI: 28.3067 Average ROB Occupancy at Mispredict: 35.0115

ChampSim completed all CPUs

Total Simulation Statistics (not including warmup)

CPU 0 cumulative IPC: 0.242984 instructions: 201747126 cycles: 830289756
ITLB TOTAL     ACCESS: 32101257  HIT: 32101257  MISS:     0  HIT %:   100  MISS %:     0  AVERAGE MISS PENALTY: 0
ITLB LOAD      ACCESS: 32101257  HIT: 32101257  MISS:     0  HIT %:   100  MISS %:     0  AVERAGE MISS PENALTY: 0
ITLB RFO       ACCESS:     0  HIT:     0  MISS:     0  HIT %:     0  MISS %:     0  AVERAGE MISS PENALTY: 0
ITLB PREFETCH  ACCESS:     0  HIT:     0  MISS:     0  HIT %:     0  MISS %:     0  AVERAGE MISS PENALTY: 0
ITLB WRITEBACK ACCESS:     0  HIT:     0  MISS:     0  HIT %:     0  MISS %:     0  AVERAGE MISS PENALTY: 0

DTLB TOTAL     ACCESS: 60979037  HIT: 58260274  MISS: 2718763  HIT %: 95.5415  MISS %: 4.45852  AVERAGE MISS PENALTY: 10.5843
DTLB LOAD      ACCESS: 46558680  HIT: 44233159  MISS: 2325521  HIT %: 95.0052  MISS %: 4.99482  AVERAGE MISS PENALTY: 10.7644
DTLB RFO       ACCESS: 14420357  HIT: 14027115  MISS: 393242  HIT %: 97.273  MISS %: 2.72699  AVERAGE MISS PENALTY: 9.51919
DTLB PREFETCH  ACCESS:     0  HIT:     0  MISS:     0  HIT %:     0  MISS %:     0  AVERAGE MISS PENALTY: 0
DTLB WRITEBACK ACCESS:     0  HIT:     0  MISS:     0  HIT %:     0  MISS %:     0  AVERAGE MISS PENALTY: 0

STLB TOTAL     ACCESS: 2718763  HIT: 2684148  MISS: 34615  HIT %: 98.7268  MISS %: 1.27319  AVERAGE MISS PENALTY: 100
STLB LOAD      ACCESS: 2325521  HIT: 2291420  MISS: 34101  HIT %: 98.5336  MISS %: 1.46638  AVERAGE MISS PENALTY: 100
STLB RFO       ACCESS: 393242  HIT: 392728  MISS:   514  HIT %: 99.8693  MISS %: 0.130708  AVERAGE MISS PENALTY: 100
STLB PREFETCH  ACCESS:     0  HIT:     0  MISS:     0  HIT %:     0  MISS %:     0  AVERAGE MISS PENALTY: 0
STLB WRITEBACK ACCESS:     0  HIT:     0  MISS:     0  HIT %:     0  MISS %:     0  AVERAGE MISS PENALTY: 0

L1D TOTAL     ACCESS: 97595516  HIT: 88362145  MISS: 9233371  HIT %: 90.5391  MISS %: 9.46086  AVERAGE MISS PENALTY: 8.34925e+06
L1D LOAD      ACCESS: 57604661  HIT: 52584297  MISS: 5020364  HIT %: 91.2848  MISS %: 8.7152  AVERAGE MISS PENALTY: 1.52344e+07
L1D RFO       ACCESS: 22865565  HIT: 22122262  MISS: 743303  HIT %: 96.7492  MISS %: 3.25075  AVERAGE MISS PENALTY: 819928
L1D PREFETCH  ACCESS: 17125290  HIT: 13655586  MISS: 3469704  HIT %: 79.7393  MISS %: 20.2607  AVERAGE MISS PENALTY: 81.1349
L1D WRITEBACK ACCESS:     0  HIT:     0  MISS:     0  HIT %:     0  MISS %:     0  AVERAGE MISS PENALTY: 0

L1I TOTAL     ACCESS: 43080174  HIT: 43080174  MISS:     0  HIT %:   100  MISS %:     0  AVERAGE MISS PENALTY: 0
L1I LOAD      ACCESS: 43080174  HIT: 43080174  MISS:     0  HIT %:   100  MISS %:     0  AVERAGE MISS PENALTY: 0
L1I RFO       ACCESS:     0  HIT:     0  MISS:     0  HIT %:     0  MISS %:     0  AVERAGE MISS PENALTY: 0
L1I PREFETCH  ACCESS:     0  HIT:     0  MISS:     0  HIT %:     0  MISS %:     0  AVERAGE MISS PENALTY: 0
L1I WRITEBACK ACCESS:     0  HIT:     0  MISS:     0  HIT %:     0  MISS %:     0  AVERAGE MISS PENALTY: 0

L2C TOTAL     ACCESS: 12782679  HIT: 5864794  MISS: 6917885  HIT %: 45.8808  MISS %: 54.1192  AVERAGE MISS PENALTY: 3.59518e+06
L2C LOAD      ACCESS: 5005732  HIT: 1702574  MISS: 3303158  HIT %: 34.0125  MISS %: 65.9875  AVERAGE MISS PENALTY: 7.52448e+06
L2C RFO       ACCESS: 742326  HIT: 177818  MISS: 564508  HIT %: 23.9542  MISS %: 76.0458  AVERAGE MISS PENALTY: 28485.7
L2C PREFETCH  ACCESS: 5866024  HIT: 2901754  MISS: 2964270  HIT %: 49.4671  MISS %: 50.5329  AVERAGE MISS PENALTY: 138.671
L2C WRITEBACK ACCESS: 1168597  HIT: 1082648  MISS: 85949  HIT %: 92.6451  MISS %: 7.35489  AVERAGE MISS PENALTY: 0


LLC0 TOTAL     ACCESS: 976698  HIT: 651922  MISS: 324776  HIT %: 66.7476  MISS %: 33.2524  AVERAGE MISS PENALTY: 213.012
LLC0 LOAD      ACCESS: 433152  HIT: 292799  MISS: 140353  HIT %: 67.5973  MISS %: 32.4027  AVERAGE MISS PENALTY: 232.928
LLC0 RFO       ACCESS: 72300  HIT: 65869  MISS:  6431  HIT %: 91.1051  MISS %: 8.89488  AVERAGE MISS PENALTY: 231.766
LLC0 PREFETCH  ACCESS: 354092  HIT: 182170  MISS: 171922  HIT %: 51.4471  MISS %: 48.5529  AVERAGE MISS PENALTY: 203.573
LLC0 WRITEBACK ACCESS: 117154  HIT: 111084  MISS:  6070  HIT %: 94.8188  MISS %: 5.18121  AVERAGE MISS PENALTY: 0

LLC1 TOTAL     ACCESS: 943511  HIT: 617406  MISS: 326105  HIT %: 65.4371  MISS %: 34.5629  AVERAGE MISS PENALTY: 212.443
LLC1 LOAD      ACCESS: 400210  HIT: 267747  MISS: 132463  HIT %: 66.9016  MISS %: 33.0984  AVERAGE MISS PENALTY: 235.532
LLC1 RFO       ACCESS: 63560  HIT: 57730  MISS:  5830  HIT %: 90.8276  MISS %: 9.17244  AVERAGE MISS PENALTY: 231.9
LLC1 PREFETCH  ACCESS: 370141  HIT: 188585  MISS: 181556  HIT %: 50.9495  MISS %: 49.0505  AVERAGE MISS PENALTY: 202.293
LLC1 WRITEBACK ACCESS: 109600  HIT: 103344  MISS:  6256  HIT %: 94.292  MISS %: 5.70803  AVERAGE MISS PENALTY: 0

LLC2 TOTAL     ACCESS: 942893  HIT: 618613  MISS: 324280  HIT %: 65.608  MISS %: 34.392  AVERAGE MISS PENALTY: 215.862
LLC2 LOAD      ACCESS: 395062  HIT: 268956  MISS: 126106  HIT %: 68.0794  MISS %: 31.9206  AVERAGE MISS PENALTY: 238.966
LLC2 RFO       ACCESS: 67207  HIT: 61086  MISS:  6121  HIT %: 90.8923  MISS %: 9.10768  AVERAGE MISS PENALTY: 230.319
LLC2 PREFETCH  ACCESS: 371893  HIT: 185555  MISS: 186338  HIT %: 49.8947  MISS %: 50.1053  AVERAGE MISS PENALTY: 206.372
LLC2 WRITEBACK ACCESS: 108731  HIT: 103016  MISS:  5715  HIT %: 94.7439  MISS %: 5.25609  AVERAGE MISS PENALTY: 0

LLC3 TOTAL     ACCESS: 952539  HIT: 626846  MISS: 325693  HIT %: 65.8079  MISS %: 34.1921  AVERAGE MISS PENALTY: 213.91
LLC3 LOAD      ACCESS: 403118  HIT: 276895  MISS: 126223  HIT %: 68.6883  MISS %: 31.3117  AVERAGE MISS PENALTY: 236.939
LLC3 RFO       ACCESS: 68186  HIT: 62160  MISS:  6026  HIT %: 91.1624  MISS %: 8.83759  AVERAGE MISS PENALTY: 231.846
LLC3 PREFETCH  ACCESS: 366285  HIT: 178971  MISS: 187314  HIT %: 48.8611  MISS %: 51.1389  AVERAGE MISS PENALTY: 204.815
LLC3 WRITEBACK ACCESS: 114950  HIT: 108820  MISS:  6130  HIT %: 94.6672  MISS %: 5.33275  AVERAGE MISS PENALTY: 0

LLC4 TOTAL     ACCESS: 972436  HIT: 645349  MISS: 327087  HIT %: 66.3642  MISS %: 33.6358  AVERAGE MISS PENALTY: 213.804
LLC4 LOAD      ACCESS: 410074  HIT: 284535  MISS: 125539  HIT %: 69.3863  MISS %: 30.6137  AVERAGE MISS PENALTY: 239.456
LLC4 RFO       ACCESS: 71770  HIT: 65578  MISS:  6192  HIT %: 91.3724  MISS %: 8.62756  AVERAGE MISS PENALTY: 233.152
LLC4 PREFETCH  ACCESS: 372665  HIT: 183537  MISS: 189128  HIT %: 49.2499  MISS %: 50.7501  AVERAGE MISS PENALTY: 203.184
LLC4 WRITEBACK ACCESS: 117927  HIT: 111699  MISS:  6228  HIT %: 94.7188  MISS %: 5.28123  AVERAGE MISS PENALTY: 0

LLC5 TOTAL     ACCESS: 977712  HIT: 652905  MISS: 324807  HIT %: 66.7789  MISS %: 33.2211  AVERAGE MISS PENALTY: 212.9
LLC5 LOAD      ACCESS: 403853  HIT: 282819  MISS: 121034  HIT %: 70.0302  MISS %: 29.9698  AVERAGE MISS PENALTY: 238.825
LLC5 RFO       ACCESS: 71915  HIT: 65588  MISS:  6327  HIT %: 91.2021  MISS %: 8.79789  AVERAGE MISS PENALTY: 230.879
LLC5 PREFETCH  ACCESS: 381876  HIT: 190789  MISS: 191087  HIT %: 49.961  MISS %: 50.039  AVERAGE MISS PENALTY: 202.969
LLC5 WRITEBACK ACCESS: 120068  HIT: 113709  MISS:  6359  HIT %: 94.7038  MISS %: 5.29617  AVERAGE MISS PENALTY: 0

LLC6 TOTAL     ACCESS: 992704  HIT: 665214  MISS: 327490  HIT %: 67.0103  MISS %: 32.9897  AVERAGE MISS PENALTY: 216.237
LLC6 LOAD      ACCESS: 414014  HIT: 290900  MISS: 123114  HIT %: 70.2633  MISS %: 29.7367  AVERAGE MISS PENALTY: 239.198
LLC6 RFO       ACCESS: 74482  HIT: 68174  MISS:  6308  HIT %: 91.5308  MISS %: 8.46916  AVERAGE MISS PENALTY: 232.074
LLC6 PREFETCH  ACCESS: 383425  HIT: 191658  MISS: 191767  HIT %: 49.9858  MISS %: 50.0142  AVERAGE MISS PENALTY: 208.079
LLC6 WRITEBACK ACCESS: 120783  HIT: 114482  MISS:  6301  HIT %: 94.7832  MISS %: 5.21679  AVERAGE MISS PENALTY: 0

LLC7 TOTAL     ACCESS: 1003407  HIT: 675069  MISS: 328338  HIT %: 67.2777  MISS %: 32.7223  AVERAGE MISS PENALTY: 215.297
LLC7 LOAD      ACCESS: 414801  HIT: 292561  MISS: 122240  HIT %: 70.5304  MISS %: 29.4696  AVERAGE MISS PENALTY: 239.162
LLC7 RFO       ACCESS: 75052  HIT: 68834  MISS:  6218  HIT %: 91.7151  MISS %: 8.28492  AVERAGE MISS PENALTY: 232.14
LLC7 PREFETCH  ACCESS: 392731  HIT: 199096  MISS: 193635  HIT %: 50.6953  MISS %: 49.3047  AVERAGE MISS PENALTY: 206.634
LLC7 WRITEBACK ACCESS: 120823  HIT: 114578  MISS:  6245  HIT %: 94.8313  MISS %: 5.16872  AVERAGE MISS PENALTY: 0

Total Rob stall cycles : 	701249766
Total Load Rob Stall cycles : 	245104064
Average Rob Stall cycles : 	 10
Average Load Rob Stall cycles : 	 13

CPU 1 cumulative IPC: 0.243221 instructions: 201943545 cycles: 830289756
ITLB TOTAL     ACCESS: 32128162  HIT: 32128162  MISS:     0  HIT %:   100  MISS %:     0  AVERAGE MISS PENALTY: 0
ITLB LOAD      ACCESS: 32128162  HIT: 32128162  MISS:     0  HIT %:   100  MISS %:     0  AVERAGE MISS PENALTY: 0
ITLB RFO       ACCESS:     0  HIT:     0  MISS:     0  HIT %:     0  MISS %:     0  AVERAGE MISS PENALTY: 0
ITLB PREFETCH  ACCESS:     0  HIT:     0  MISS:     0  HIT %:     0  MISS %:     0  AVERAGE MISS PENALTY: 0
ITLB WRITEBACK ACCESS:     0  HIT:     0  MISS:     0  HIT %:     0  MISS %:     0  AVERAGE MISS PENALTY: 0

DTLB TOTAL     ACCESS: 61035723  HIT: 58308702  MISS: 2727021  HIT %: 95.5321  MISS %: 4.46791  AVERAGE MISS PENALTY: 10.5847
DTLB LOAD      ACCESS: 46601435  HIT: 44269002  MISS: 2332433  HIT %: 94.9949  MISS %: 5.00507  AVERAGE MISS PENALTY: 10.7651
DTLB RFO       ACCESS: 14434288  HIT: 14039700  MISS: 394588  HIT %: 97.2663  MISS %: 2.73369  AVERAGE MISS PENALTY: 9.51807
DTLB PREFETCH  ACCESS:     0  HIT:     0  MISS:     0  HIT %:     0  MISS %:     0  AVERAGE MISS PENALTY: 0
DTLB WRITEBACK ACCESS:     0  HIT:     0  MISS:     0  HIT %:     0  MISS %:     0  AVERAGE MISS PENALTY: 0

STLB TOTAL     ACCESS: 2727021  HIT: 2692274  MISS: 34747  HIT %: 98.7258  MISS %: 1.27417  AVERAGE MISS PENALTY: 100
STLB LOAD      ACCESS: 2332433  HIT: 2298202  MISS: 34231  HIT %: 98.5324  MISS %: 1.46761  AVERAGE MISS PENALTY: 100
STLB RFO       ACCESS: 394588  HIT: 394072  MISS:   516  HIT %: 99.8692  MISS %: 0.130769  AVERAGE MISS PENALTY: 100
STLB PREFETCH  ACCESS:     0  HIT:     0  MISS:     0  HIT %:     0  MISS %:     0  AVERAGE MISS PENALTY: 0
STLB WRITEBACK ACCESS:     0  HIT:     0  MISS:     0  HIT %:     0  MISS %:     0  AVERAGE MISS PENALTY: 0

L1D TOTAL     ACCESS: 97641582  HIT: 88397193  MISS: 9244389  HIT %: 90.5323  MISS %: 9.46768  AVERAGE MISS PENALTY: 8.32684e+06
L1D LOAD      ACCESS: 57656119  HIT: 52626899  MISS: 5029220  HIT %: 91.2772  MISS %: 8.72279  AVERAGE MISS PENALTY: 1.51845e+07
L1D RFO       ACCESS: 22886615  HIT: 22140948  MISS: 745667  HIT %: 96.7419  MISS %: 3.25809  AVERAGE MISS PENALTY: 818206
L1D PREFETCH  ACCESS: 17098848  HIT: 13629346  MISS: 3469502  HIT %: 79.7091  MISS %: 20.2909  AVERAGE MISS PENALTY: 80.845
L1D WRITEBACK ACCESS:     0  HIT:     0  MISS:     0  HIT %:     0  MISS %:     0  AVERAGE MISS PENALTY: 0

L1I TOTAL     ACCESS: 43115152  HIT: 43115152  MISS:     0  HIT %:   100  MISS %:     0  AVERAGE MISS PENALTY: 0
L1I LOAD      ACCESS: 43115152  HIT: 43115152  MISS:     0  HIT %:   100  MISS %:     0  AVERAGE MISS PENALTY: 0
L1I RFO       ACCESS:     0  HIT:     0  MISS:     0  HIT %:     0  MISS %:     0  AVERAGE MISS PENALTY: 0
L1I PREFETCH  ACCESS:     0  HIT:     0  MISS:     0  HIT %:     0  MISS %:     0  AVERAGE MISS PENALTY: 0
L1I WRITEBACK ACCESS:     0  HIT:     0  MISS:     0  HIT %:     0  MISS %:     0  AVERAGE MISS PENALTY: 0

L2C TOTAL     ACCESS: 12793520  HIT: 5973896  MISS: 6819624  HIT %: 46.6947  MISS %: 53.3053  AVERAGE MISS PENALTY: 3.61484e+06
L2C LOAD      ACCESS: 5014588  HIT: 1732679  MISS: 3281909  HIT %: 34.5528  MISS %: 65.4472  AVERAGE MISS PENALTY: 7.50812e+06
L2C RFO       ACCESS: 744696  HIT: 193861  MISS: 550835  HIT %: 26.0322  MISS %: 73.9678  AVERAGE MISS PENALTY: 18938.6
L2C PREFETCH  ACCESS: 5862848  HIT: 2946391  MISS: 2916457  HIT %: 50.2553  MISS %: 49.7447  AVERAGE MISS PENALTY: 140.167
L2C WRITEBACK ACCESS: 1171388  HIT: 1100965  MISS: 70423  HIT %: 93.9881  MISS %: 6.01193  AVERAGE MISS PENALTY: 0


LLC0 TOTAL     ACCESS: 960395  HIT: 633531  MISS: 326864  HIT %: 65.9657  MISS %: 34.0343  AVERAGE MISS PENALTY: 211.992
LLC0 LOAD      ACCESS: 430132  HIT: 288761  MISS: 141371  HIT %: 67.1331  MISS %: 32.8669  AVERAGE MISS PENALTY: 232.564
LLC0 RFO       ACCESS: 70849  HIT: 64659  MISS:  6190  HIT %: 91.2631  MISS %: 8.73689  AVERAGE MISS PENALTY: 229.435
LLC0 PREFETCH  ACCESS: 347651  HIT: 174940  MISS: 172711  HIT %: 50.3206  MISS %: 49.6794  AVERAGE MISS PENALTY: 202.619
LLC0 WRITEBACK ACCESS: 111763  HIT: 105171  MISS:  6592  HIT %: 94.1018  MISS %: 5.8982  AVERAGE MISS PENALTY: 0

LLC1 TOTAL     ACCESS: 928075  HIT: 600562  MISS: 327513  HIT %: 64.7105  MISS %: 35.2895  AVERAGE MISS PENALTY: 211.332
LLC1 LOAD      ACCESS: 397635  HIT: 264831  MISS: 132804  HIT %: 66.6015  MISS %: 33.3985  AVERAGE MISS PENALTY: 234.099
LLC1 RFO       ACCESS: 61679  HIT: 56044  MISS:  5635  HIT %: 90.864  MISS %: 9.13601  AVERAGE MISS PENALTY: 229.73
LLC1 PREFETCH  ACCESS: 364908  HIT: 182325  MISS: 182583  HIT %: 49.9646  MISS %: 50.0354  AVERAGE MISS PENALTY: 201.718
LLC1 WRITEBACK ACCESS: 103853  HIT: 97362  MISS:  6491  HIT %: 93.7498  MISS %: 6.25018  AVERAGE MISS PENALTY: 0

LLC2 TOTAL     ACCESS: 927059  HIT: 601940  MISS: 325119  HIT %: 64.9301  MISS %: 35.0699  AVERAGE MISS PENALTY: 214.51
LLC2 LOAD      ACCESS: 392572  HIT: 266298  MISS: 126274  HIT %: 67.8342  MISS %: 32.1658  AVERAGE MISS PENALTY: 238.264
LLC2 RFO       ACCESS: 65590  HIT: 59646  MISS:  5944  HIT %: 90.9376  MISS %: 9.06236  AVERAGE MISS PENALTY: 229.609
LLC2 PREFETCH  ACCESS: 365789  HIT: 179028  MISS: 186761  HIT %: 48.943  MISS %: 51.057  AVERAGE MISS PENALTY: 205.02
LLC2 WRITEBACK ACCESS: 103108  HIT: 96968  MISS:  6140  HIT %: 94.0451  MISS %: 5.95492  AVERAGE MISS PENALTY: 0

LLC3 TOTAL     ACCESS: 936869  HIT: 610037  MISS: 326832  HIT %: 65.1144  MISS %: 34.8856  AVERAGE MISS PENALTY: 212.444
[...]
LLC1 AVERAGE MISS LATENCY: 205.142 cycles
LLC2 TOTAL     ACCESS: 840579  HIT: 518492  MISS: 322087  HIT %: 61.6827  MISS %: 38.3173  AVERAGE MISS PENALTY: 207.152
LLC2 LOAD      ACCESS: 361323  HIT: 236464  MISS: 124859  HIT %: 65.4439  MISS %: 34.5561  AVERAGE MISS PENALTY: 230.844
LLC2 RFO       ACCESS: 59912  HIT: 54444  MISS:  5468  HIT %: 90.8733  MISS %: 9.12672  AVERAGE MISS PENALTY: 223.373
LLC2 PREFETCH  ACCESS: 324104  HIT: 139852  MISS: 184252  HIT %: 43.1503  MISS %: 56.8497  AVERAGE MISS PENALTY: 199.057
LLC2 WRITEBACK ACCESS: 95240  HIT: 87732  MISS:  7508  HIT %: 92.1168  MISS %: 7.88324  AVERAGE MISS PENALTY: 0
LLC2 PREFETCH  REQUESTED:     0  ISSUED:     0  USEFUL: 163531  USELESS: 1328905
 USEFUL LOAD PREFETCHES:     163531 PREFETCH ISSUED TO LOWER LEVEL:    1491454  ACCURACY: 10.9645
 TIMELY PREFETCHES:     163531 LATE PREFETCHES: 0 DROPPED PREFETCHES: 0
LLC2 AVERAGE MISS LATENCY: 207.152 cycles
LLC3 TOTAL     ACCESS: 839631  HIT: 516954  MISS: 322677  HIT %: 61.5692  MISS %: 38.4308  AVERAGE MISS PENALTY: 204.932
LLC3 LOAD      ACCESS: 359052  HIT: 235057  MISS: 123995  HIT %: 65.466  MISS %: 34.534  AVERAGE MISS PENALTY: 228.985
LLC3 RFO       ACCESS: 59129  HIT: 53713  MISS:  5416  HIT %: 90.8404  MISS %: 9.15963  AVERAGE MISS PENALTY: 223.868
LLC3 PREFETCH  ACCESS: 322089  HIT: 136747  MISS: 185342  HIT %: 42.4563  MISS %: 57.5437  AVERAGE MISS PENALTY: 197.049
LLC3 WRITEBACK ACCESS: 99361  HIT: 91437  MISS:  7924  HIT %: 92.025  MISS %: 7.97496  AVERAGE MISS PENALTY: 0
LLC3 PREFETCH  REQUESTED:     0  ISSUED:     0  USEFUL: 165280  USELESS: 1332622
 USEFUL LOAD PREFETCHES:     165280 PREFETCH ISSUED TO LOWER LEVEL:    1497079  ACCURACY: 11.0402
 TIMELY PREFETCHES:     165280 LATE PREFETCHES: 0 DROPPED PREFETCHES: 0
LLC3 AVERAGE MISS LATENCY: 204.932 cycles
LLC4 TOTAL     ACCESS: 862714  HIT: 537365  MISS: 325349  HIT %: 62.2877  MISS %: 37.7123  AVERAGE MISS PENALTY: 205.958
LLC4 LOAD      ACCESS: 370476  HIT: 246335  MISS: 124141  HIT %: 66.4915  MISS %: 33.5085  AVERAGE MISS PENALTY: 231.403
LLC4 RFO       ACCESS: 62246  HIT: 56559  MISS:  5687  HIT %: 90.8637  MISS %: 9.13633  AVERAGE MISS PENALTY: 230.226
LLC4 PREFETCH  ACCESS: 327430  HIT: 140130  MISS: 187300  HIT %: 42.7969  MISS %: 57.2031  AVERAGE MISS PENALTY: 197.397
LLC4 WRITEBACK ACCESS: 102562  HIT: 94341  MISS:  8221  HIT %: 91.9844  MISS %: 8.01564  AVERAGE MISS PENALTY: 0
LLC4 PREFETCH  REQUESTED:     0  ISSUED:     0  USEFUL: 166790  USELESS: 1345329
 USEFUL LOAD PREFETCHES:     166790 PREFETCH ISSUED TO LOWER LEVEL:    1511754  ACCURACY: 11.0329
 TIMELY PREFETCHES:     166790 LATE PREFETCHES: 0 DROPPED PREFETCHES: 0
LLC4 AVERAGE MISS LATENCY: 205.958 cycles
LLC5 TOTAL     ACCESS: 860567  HIT: 538888  MISS: 321679  HIT %: 62.6201  MISS %: 37.3799  AVERAGE MISS PENALTY: 205.367
LLC5 LOAD      ACCESS: 361000  HIT: 241956  MISS: 119044  HIT %: 67.0238  MISS %: 32.9762  AVERAGE MISS PENALTY: 231.389
LLC5 RFO       ACCESS: 63465  HIT: 57922  MISS:  5543  HIT %: 91.2661  MISS %: 8.73395  AVERAGE MISS PENALTY: 226.692
LLC5 PREFETCH  ACCESS: 331390  HIT: 142327  MISS: 189063  HIT %: 42.9485  MISS %: 57.0515  AVERAGE MISS PENALTY: 197.079
LLC5 WRITEBACK ACCESS: 104712  HIT: 96683  MISS:  8029  HIT %: 92.3323  MISS %: 7.6677  AVERAGE MISS PENALTY: 0
LLC5 PREFETCH  REQUESTED:     0  ISSUED:     0  USEFUL: 176047  USELESS: 1351517
 USEFUL LOAD PREFETCHES:     176047 PREFETCH ISSUED TO LOWER LEVEL:    1526760  ACCURACY: 11.5308
 TIMELY PREFETCHES:     176047 LATE PREFETCHES: 0 DROPPED PREFETCHES: 0
LLC5 AVERAGE MISS LATENCY: 205.367 cycles
LLC6 TOTAL     ACCESS: 870898  HIT: 546459  MISS: 324439  HIT %: 62.7466  MISS %: 37.2534  AVERAGE MISS PENALTY: 207.954
LLC6 LOAD      ACCESS: 368331  HIT: 246919  MISS: 121412  HIT %: 67.0373  MISS %: 32.9627  AVERAGE MISS PENALTY: 231.971
LLC6 RFO       ACCESS: 65264  HIT: 59564  MISS:  5700  HIT %: 91.2662  MISS %: 8.73376  AVERAGE MISS PENALTY: 225.526
LLC6 PREFETCH  ACCESS: 332193  HIT: 142740  MISS: 189453  HIT %: 42.969  MISS %: 57.031  AVERAGE MISS PENALTY: 200.678
LLC6 WRITEBACK ACCESS: 105110  HIT: 97236  MISS:  7874  HIT %: 92.5088  MISS %: 7.4912  AVERAGE MISS PENALTY: 0
LLC6 PREFETCH  REQUESTED:     0  ISSUED:     0  USEFUL: 171724  USELESS: 1360389
 USEFUL LOAD PREFETCHES:     171724 PREFETCH ISSUED TO LOWER LEVEL:    1531439  ACCURACY: 11.2132
 TIMELY PREFETCHES:     171724 LATE PREFETCHES: 0 DROPPED PREFETCHES: 0
LLC6 AVERAGE MISS LATENCY: 207.954 cycles
LLC7 TOTAL     ACCESS: 874185  HIT: 549433  MISS: 324752  HIT %: 62.8509  MISS %: 37.1491  AVERAGE MISS PENALTY: 207.248
LLC7 LOAD      ACCESS: 367217  HIT: 247372  MISS: 119845  HIT %: 67.364  MISS %: 32.636  AVERAGE MISS PENALTY: 231.768
LLC7 RFO       ACCESS: 63774  HIT: 58440  MISS:  5334  HIT %: 91.6361  MISS %: 8.36391  AVERAGE MISS PENALTY: 226.101
LLC7 PREFETCH  ACCESS: 340432  HIT: 148713  MISS: 191719  HIT %: 43.6836  MISS %: 56.3164  AVERAGE MISS PENALTY: 199.886
LLC7 WRITEBACK ACCESS: 102762  HIT: 94908  MISS:  7854  HIT %: 92.3571  MISS %: 7.6429  AVERAGE MISS PENALTY: 0
LLC7 PREFETCH  REQUESTED:     0  ISSUED:     0  USEFUL: 176881  USELESS: 1373631
 USEFUL LOAD PREFETCHES:     176881 PREFETCH ISSUED TO LOWER LEVEL:    1550303  ACCURACY: 11.4094
 TIMELY PREFETCHES:     176881 LATE PREFETCHES: 0 DROPPED PREFETCHES: 0
LLC7 AVERAGE MISS LATENCY: 207.248 cycles
ROI Average ROB Stall Cycles:	10.2996
ROI Total ROB Stalls Cycles:	683507591
ROI TOTAL ROB counter      :	66362399
ROI Average Load ROB Stall Cycles:	12.7022
ROI Total Load ROB Stalls Cycle  :	237068753
ROI Total Load ROB stalls Counter:	18663669
Major fault: 0 Minor fault: 44995

CPU 7 cumulative IPC: 0.240891 instructions: 200000000 cycles: 830250793
ITLB TOTAL     ACCESS: 31817802  HIT: 31817802  MISS:     0  HIT %:   100  MISS %:     0  AVERAGE MISS PENALTY: 0
ITLB LOAD      ACCESS: 31817802  HIT: 31817802  MISS:     0  HIT %:   100  MISS %:     0  AVERAGE MISS PENALTY: 0
ITLB RFO       ACCESS:     0  HIT:     0  MISS:     0  HIT %:     0  MISS %:     0  AVERAGE MISS PENALTY: 0
ITLB PREFETCH  ACCESS:     0  HIT:     0  MISS:     0  HIT %:     0  MISS %:     0  AVERAGE MISS PENALTY: 0
ITLB WRITEBACK ACCESS:     0  HIT:     0  MISS:     0  HIT %:     0  MISS %:     0  AVERAGE MISS PENALTY: 0
ITLB PREFETCH  REQUESTED:     0  ISSUED:     0  USEFUL:     0  USELESS:     0
 USEFUL LOAD PREFETCHES:          0 PREFETCH ISSUED TO LOWER LEVEL:          0  ACCURACY: -nan
 TIMELY PREFETCHES:          0 LATE PREFETCHES: 0 DROPPED PREFETCHES: 0
ITLB AVERAGE MISS LATENCY: -nan cycles
DTLB TOTAL     ACCESS: 60446400  HIT: 57748118  MISS: 2698282  HIT %: 95.5361  MISS %: 4.46393  AVERAGE MISS PENALTY: 10.5826
DTLB LOAD      ACCESS: 46151658  HIT: 43843734  MISS: 2307924  HIT %: 94.9993  MISS %: 5.00074  AVERAGE MISS PENALTY: 10.7628
DTLB RFO       ACCESS: 14294742  HIT: 13904384  MISS: 390358  HIT %: 97.2692  MISS %: 2.73078  AVERAGE MISS PENALTY: 9.51695
DTLB PREFETCH  ACCESS:     0  HIT:     0  MISS:     0  HIT %:     0  MISS %:     0  AVERAGE MISS PENALTY: 0
DTLB WRITEBACK ACCESS:     0  HIT:     0  MISS:     0  HIT %:     0  MISS %:     0  AVERAGE MISS PENALTY: 0
DTLB PREFETCH  REQUESTED:     0  ISSUED:     0  USEFUL:     0  USELESS:     0
 USEFUL LOAD PREFETCHES:          0 PREFETCH ISSUED TO LOWER LEVEL:          0  ACCURACY: -nan
 TIMELY PREFETCHES:          0 LATE PREFETCHES: 0 DROPPED PREFETCHES: 0
DTLB AVERAGE MISS LATENCY: 10.5826 cycles
STLB TOTAL     ACCESS: 2698282  HIT: 2663935  MISS: 34347  HIT %: 98.7271  MISS %: 1.27292  AVERAGE MISS PENALTY: 100
STLB LOAD      ACCESS: 2307924  HIT: 2274087  MISS: 33837  HIT %: 98.5339  MISS %: 1.46612  AVERAGE MISS PENALTY: 100
STLB RFO       ACCESS: 390358  HIT: 389848  MISS:   510  HIT %: 99.8694  MISS %: 0.130649  AVERAGE MISS PENALTY: 100
STLB PREFETCH  ACCESS:     0  HIT:     0  MISS:     0  HIT %:     0  MISS %:     0  AVERAGE MISS PENALTY: 0
STLB WRITEBACK ACCESS:     0  HIT:     0  MISS:     0  HIT %:     0  MISS %:     0  AVERAGE MISS PENALTY: 0
STLB PREFETCH  REQUESTED:     0  ISSUED:     0  USEFUL:     0  USELESS:     0
 USEFUL LOAD PREFETCHES:          0 PREFETCH ISSUED TO LOWER LEVEL:          0  ACCURACY: -nan
 TIMELY PREFETCHES:          0 LATE PREFETCHES: 0 DROPPED PREFETCHES: 0
STLB AVERAGE MISS LATENCY: 100 cycles
L1D TOTAL     ACCESS: 96778163  HIT: 87628341  MISS: 9149822  HIT %: 90.5456  MISS %: 9.45443  AVERAGE MISS PENALTY: 8.45297e+06
L1D LOAD      ACCESS: 57100221  HIT: 52120171  MISS: 4980050  HIT %: 91.2784  MISS %: 8.72159  AVERAGE MISS PENALTY: 1.54053e+07
L1D RFO       ACCESS: 22656584  HIT: 21919180  MISS: 737404  HIT %: 96.7453  MISS %: 3.2547  AVERAGE MISS PENALTY: 846196
L1D PREFETCH  ACCESS: 17021358  HIT: 13588990  MISS: 3432368  HIT %: 79.8349  MISS %: 20.1651  AVERAGE MISS PENALTY: 82.8143
L1D WRITEBACK ACCESS:     0  HIT:     0  MISS:     0  HIT %:     0  MISS %:     0  AVERAGE MISS PENALTY: 0
L1D PREFETCH  REQUESTED: 18960958  ISSUED: 18847683  USEFUL: 1488179  USELESS: 1944013
 USEFUL LOAD PREFETCHES:    1488179 PREFETCH ISSUED TO LOWER LEVEL:    4076365  ACCURACY: 36.5075
 TIMELY PREFETCHES:    1488179 LATE PREFETCHES: 264673 DROPPED PREFETCHES: 113275
L1D AVERAGE MISS LATENCY: 68277.5 cycles
L1I TOTAL     ACCESS: 42699918  HIT: 42699918  MISS:     0  HIT %:   100  MISS %:     0  AVERAGE MISS PENALTY: 0
L1I LOAD      ACCESS: 42699918  HIT: 42699918  MISS:     0  HIT %:   100  MISS %:     0  AVERAGE MISS PENALTY: 0
L1I RFO       ACCESS:     0  HIT:     0  MISS:     0  HIT %:     0  MISS %:     0  AVERAGE MISS PENALTY: 0
L1I PREFETCH  ACCESS:     0  HIT:     0  MISS:     0  HIT %:     0  MISS %:     0  AVERAGE MISS PENALTY: 0
L1I WRITEBACK ACCESS:     0  HIT:     0  MISS:     0  HIT %:     0  MISS %:     0  AVERAGE MISS PENALTY: 0
L1I PREFETCH  REQUESTED:     0  ISSUED:     0  USEFUL:     0  USELESS:     0
 USEFUL LOAD PREFETCHES:          0 PREFETCH ISSUED TO LOWER LEVEL:          0  ACCURACY: -nan
 TIMELY PREFETCHES:          0 LATE PREFETCHES: 0 DROPPED PREFETCHES: 0
L1I AVERAGE MISS LATENCY: -nan cycles
L2C TOTAL     ACCESS: 12660756  HIT: 5657938  MISS: 7002818  HIT %: 44.6888  MISS %: 55.3112  AVERAGE MISS PENALTY: 3.62147e+06
L2C LOAD      ACCESS: 4965550  HIT: 1616407  MISS: 3349143  HIT %: 32.5524  MISS %: 67.4476  AVERAGE MISS PENALTY: 7.56544e+06
L2C RFO       ACCESS: 736413  HIT: 151361  MISS: 585052  HIT %: 20.5538  MISS %: 79.4462  AVERAGE MISS PENALTY: 38129.3
L2C PREFETCH  ACCESS: 5799762  HIT: 2816500  MISS: 2983262  HIT %: 48.5623  MISS %: 51.4377  AVERAGE MISS PENALTY: 139.458
L2C WRITEBACK ACCESS: 1159031  HIT: 1073670  MISS: 85361  HIT %: 92.6351  MISS %: 7.36486  AVERAGE MISS PENALTY: 0
L2C PREFETCH  REQUESTED: 4331408  ISSUED: 4301456  USEFUL: 507925  USELESS: 2475411
 USEFUL LOAD PREFETCHES:     507925 PREFETCH ISSUED TO LOWER LEVEL:    3266330  ACCURACY: 15.5503
 TIMELY PREFETCHES:     507925 LATE PREFETCHES: 106552 DROPPED PREFETCHES: 29952
L2C AVERAGE MISS LATENCY: 118.578 cycles
LLC0 TOTAL     ACCESS: 987392  HIT: 664496  MISS: 322896  HIT %: 67.2981  MISS %: 32.7019  AVERAGE MISS PENALTY: 218.174
LLC0 LOAD      ACCESS: 439987  HIT: 299947  MISS: 140040  HIT %: 68.1718  MISS %: 31.8282  AVERAGE MISS PENALTY: 240.182
LLC0 RFO       ACCESS: 74960  HIT: 68021  MISS:  6939  HIT %: 90.7431  MISS %: 9.25694  AVERAGE MISS PENALTY: 238.575
LLC0 PREFETCH  ACCESS: 356398  HIT: 186429  MISS: 169969  HIT %: 52.3092  MISS %: 47.6908  AVERAGE MISS PENALTY: 206.844
LLC0 WRITEBACK ACCESS: 116047  HIT: 110099  MISS:  5948  HIT %: 94.8745  MISS %: 5.12551  AVERAGE MISS PENALTY: 0
LLC0 PREFETCH  REQUESTED:     0  ISSUED:     0  USEFUL: 153585  USELESS: 1222258
 USEFUL LOAD PREFETCHES:     153585 PREFETCH ISSUED TO LOWER LEVEL:    1375370  ACCURACY: 11.1668
 TIMELY PREFETCHES:     153585 LATE PREFETCHES: 0 DROPPED PREFETCHES: 0
LLC0 AVERAGE MISS LATENCY: 218.174 cycles
Deadblocks : 822712 Deadblock percentage : 587.484

LLC1 TOTAL     ACCESS: 950041  HIT: 625575  MISS: 324466  HIT %: 65.8472  MISS %: 34.1528  AVERAGE MISS PENALTY: 217.828
LLC1 LOAD      ACCESS: 404180  HIT: 272720  MISS: 131460  HIT %: 67.4749  MISS %: 32.5251  AVERAGE MISS PENALTY: 242.857
LLC1 RFO       ACCESS: 65498  HIT: 59084  MISS:  6414  HIT %: 90.2073  MISS %: 9.79267  AVERAGE MISS PENALTY: 237.887
LLC1 PREFETCH  ACCESS: 372684  HIT: 192273  MISS: 180411  HIT %: 51.5914  MISS %: 48.4086  AVERAGE MISS PENALTY: 206.34
LLC1 WRITEBACK ACCESS: 107679  HIT: 101498  MISS:  6181  HIT %: 94.2598  MISS %: 5.74021  AVERAGE MISS PENALTY: 0
LLC1 PREFETCH  REQUESTED:     0  ISSUED:     0  USEFUL: 168651  USELESS: 1287707
 USEFUL LOAD PREFETCHES:     168651 PREFETCH ISSUED TO LOWER LEVEL:    1455373  ACCURACY: 11.5882
 TIMELY PREFETCHES:     168651 LATE PREFETCHES: 0 DROPPED PREFETCHES: 0
LLC1 AVERAGE MISS LATENCY: 217.828 cycles
LLC2 TOTAL     ACCESS: 952679  HIT: 629477  MISS: 323202  HIT %: 66.0744  MISS %: 33.9256  AVERAGE MISS PENALTY: 222.781
LLC2 LOAD      ACCESS: 400650  HIT: 274743  MISS: 125907  HIT %: 68.5743  MISS %: 31.4257  AVERAGE MISS PENALTY: 246.17
LLC2 RFO       ACCESS: 69110  HIT: 62409  MISS:  6701  HIT %: 90.3039  MISS %: 9.69614  AVERAGE MISS PENALTY: 236.201
LLC2 PREFETCH  ACCESS: 375212  HIT: 190404  MISS: 184808  HIT %: 50.7457  MISS %: 49.2543  AVERAGE MISS PENALTY: 213.335
LLC2 WRITEBACK ACCESS: 107707  HIT: 101921  MISS:  5786  HIT %: 94.628  MISS %: 5.37198  AVERAGE MISS PENALTY: 0
LLC2 PREFETCH  REQUESTED:     0  ISSUED:     0  USEFUL: 163531  USELESS: 1328905
 USEFUL LOAD PREFETCHES:     163531 PREFETCH ISSUED TO LOWER LEVEL:    1491454  ACCURACY: 10.9645
 TIMELY PREFETCHES:     163531 LATE PREFETCHES: 0 DROPPED PREFETCHES: 0
LLC2 AVERAGE MISS LATENCY: 222.781 cycles
LLC3 TOTAL     ACCESS: 957677  HIT: 633697  MISS: 323980  HIT %: 66.1702  MISS %: 33.8298  AVERAGE MISS PENALTY: 220.807
LLC3 LOAD      ACCESS: 406317  HIT: 280121  MISS: 126196  HIT %: 68.9415  MISS %: 31.0585  AVERAGE MISS PENALTY: 244.115
LLC3 RFO       ACCESS: 69431  HIT: 62824  MISS:  6607  HIT %: 90.4841  MISS %: 9.51592  AVERAGE MISS PENALTY: 239.676
LLC3 PREFETCH  ACCESS: 368919  HIT: 183965  MISS: 184954  HIT %: 49.866  MISS %: 50.134  AVERAGE MISS PENALTY: 211.658
LLC3 WRITEBACK ACCESS: 113010  HIT: 106787  MISS:  6223  HIT %: 94.4934  MISS %: 5.50659  AVERAGE MISS PENALTY: 0
LLC3 PREFETCH  REQUESTED:     0  ISSUED:     0  USEFUL: 165280  USELESS: 1332622
 USEFUL LOAD PREFETCHES:     165280 PREFETCH ISSUED TO LOWER LEVEL:    1497079  ACCURACY: 11.0402
 TIMELY PREFETCHES:     165280 LATE PREFETCHES: 0 DROPPED PREFETCHES: 0
LLC3 AVERAGE MISS LATENCY: 220.807 cycles
LLC4 TOTAL     ACCESS: 984391  HIT: 659015  MISS: 325376  HIT %: 66.9465  MISS %: 33.0535  AVERAGE MISS PENALTY: 219.227
LLC4 LOAD      ACCESS: 416633  HIT: 291317  MISS: 125316  HIT %: 69.9217  MISS %: 30.0783  AVERAGE MISS PENALTY: 246.777
LLC4 RFO       ACCESS: 75108  HIT: 68193  MISS:  6915  HIT %: 90.7933  MISS %: 9.20674  AVERAGE MISS PENALTY: 235.279
LLC4 PREFETCH  ACCESS: 375171  HIT: 188141  MISS: 187030  HIT %: 50.1481  MISS %: 49.8519  AVERAGE MISS PENALTY: 207.342
LLC4 WRITEBACK ACCESS: 117479  HIT: 111364  MISS:  6115  HIT %: 94.7948  MISS %: 5.20519  AVERAGE MISS PENALTY: 0
LLC4 PREFETCH  REQUESTED:     0  ISSUED:     0  USEFUL: 166790  USELESS: 1345329
 USEFUL LOAD PREFETCHES:     166790 PREFETCH ISSUED TO LOWER LEVEL:    1511754  ACCURACY: 11.0329
 TIMELY PREFETCHES:     166790 LATE PREFETCHES: 0 DROPPED PREFETCHES: 0
LLC4 AVERAGE MISS LATENCY: 219.227 cycles
LLC5 TOTAL     ACCESS: 989927  HIT: 667303  MISS: 322624  HIT %: 67.4093  MISS %: 32.5907  AVERAGE MISS PENALTY: 217.926
LLC5 LOAD      ACCESS: 410831  HIT: 290401  MISS: 120430  HIT %: 70.6862  MISS %: 29.3138  AVERAGE MISS PENALTY: 246.014
LLC5 RFO       ACCESS: 75475  HIT: 68560  MISS:  6915  HIT %: 90.838  MISS %: 9.16197  AVERAGE MISS PENALTY: 236.452
LLC5 PREFETCH  ACCESS: 383343  HIT: 194602  MISS: 188741  HIT %: 50.7645  MISS %: 49.2355  AVERAGE MISS PENALTY: 206.873
LLC5 WRITEBACK ACCESS: 120278  HIT: 113740  MISS:  6538  HIT %: 94.5643  MISS %: 5.43574  AVERAGE MISS PENALTY: 0
LLC5 PREFETCH  REQUESTED:     0  ISSUED:     0  USEFUL: 176047  USELESS: 1351517
 USEFUL LOAD PREFETCHES:     176047 PREFETCH ISSUED TO LOWER LEVEL:    1526760  ACCURACY: 11.5308
 TIMELY PREFETCHES:     176047 LATE PREFETCHES: 0 DROPPED PREFETCHES: 0
LLC5 AVERAGE MISS LATENCY: 217.926 cycles
LLC6 TOTAL     ACCESS: 1005585  HIT: 680827  MISS: 324758  HIT %: 67.7046  MISS %: 32.2954  AVERAGE MISS PENALTY: 223.506
LLC6 LOAD      ACCESS: 422074  HIT: 299467  MISS: 122607  HIT %: 70.9513  MISS %: 29.0487  AVERAGE MISS PENALTY: 247.141
LLC6 RFO       ACCESS: 78024  HIT: 71041  MISS:  6983  HIT %: 91.0502  MISS %: 8.94981  AVERAGE MISS PENALTY: 239.248
LLC6 PREFETCH  ACCESS: 384687  HIT: 195434  MISS: 189253  HIT %: 50.8034  MISS %: 49.1966  AVERAGE MISS PENALTY: 214.598
LLC6 WRITEBACK ACCESS: 120800  HIT: 114885  MISS:  5915  HIT %: 95.1035  MISS %: 4.89652  AVERAGE MISS PENALTY: 0
LLC6 PREFETCH  REQUESTED:     0  ISSUED:     0  USEFUL: 171724  USELESS: 1360389
 USEFUL LOAD PREFETCHES:     171724 PREFETCH ISSUED TO LOWER LEVEL:    1531439  ACCURACY: 11.2132
 TIMELY PREFETCHES:     171724 LATE PREFETCHES: 0 DROPPED PREFETCHES: 0
LLC6 AVERAGE MISS LATENCY: 223.506 cycles
LLC7 TOTAL     ACCESS: 1012105  HIT: 686002  MISS: 326103  HIT %: 67.7797  MISS %: 32.2203  AVERAGE MISS PENALTY: 222.815
LLC7 LOAD      ACCESS: 418696  HIT: 297315  MISS: 121381  HIT %: 71.0098  MISS %: 28.9902  AVERAGE MISS PENALTY: 246.571
LLC7 RFO       ACCESS: 77405  HIT: 70563  MISS:  6842  HIT %: 91.1608  MISS %: 8.83922  AVERAGE MISS PENALTY: 235.914
LLC7 PREFETCH  ACCESS: 396588  HIT: 204803  MISS: 191785  HIT %: 51.6412  MISS %: 48.3588  AVERAGE MISS PENALTY: 214.394
LLC7 WRITEBACK ACCESS: 119416  HIT: 113321  MISS:  6095  HIT %: 94.896  MISS %: 5.10401  AVERAGE MISS PENALTY: 0
LLC7 PREFETCH  REQUESTED:     0  ISSUED:     0  USEFUL: 176881  USELESS: 1373631
 USEFUL LOAD PREFETCHES:     176881 PREFETCH ISSUED TO LOWER LEVEL:    1550303  ACCURACY: 11.4094
 TIMELY PREFETCHES:     176881 LATE PREFETCHES: 0 DROPPED PREFETCHES: 0
LLC7 AVERAGE MISS LATENCY: 222.815 cycles
ROI Average ROB Stall Cycles:	10.6372
ROI Total ROB Stalls Cycles:	702349234
ROI TOTAL ROB counter      :	66027699
ROI Average Load ROB Stall Cycles:	13.3272
ROI Total Load ROB Stalls Cycle  :	247146528
ROI Total Load ROB stalls Counter:	18544542
Major fault: 0 Minor fault: 44570








Interconnect Stats 
LINK 0 BW : 0LINK 1 BW : 0LINK 2 BW : 0LINK 3 BW : 0LINK 4 BW : 0LINK 5 BW : 0LINK 6 BW : 0LINK 7 BW : 0
DRAM Statistics
 CHANNEL 0
 RQ ROW_BUFFER_HIT: 2544379  ROW_BUFFER_MISS: 7685664
 DBUS_CONGESTED: 4588629
 WQ ROW_BUFFER_HIT: 150030  ROW_BUFFER_MISS: 583269  FULL:     0

 CHANNEL 1
 RQ ROW_BUFFER_HIT: 2524742  ROW_BUFFER_MISS: 7701641
 DBUS_CONGESTED: 4588629
 WQ ROW_BUFFER_HIT: 150607  ROW_BUFFER_MISS: 589724  FULL:     0

 AVG_CONGESTED_CYCLE: 5
DRAM PAGES: 2097152
Allocated PAGES: 357893
L2C destructor called
L1D destructor called
L1I destructor called
STLB destructor called
DTLB destructor called
ITLB destructor called
L2C destructor called
L1D destructor called
L1I destructor called
STLB destructor called
DTLB destructor called
ITLB destructor called
L2C destructor called
L1D destructor called
L1I destructor called
STLB destructor called
DTLB destructor called
ITLB destructor called
L2C destructor called
L1D destructor called
L1I destructor called
STLB destructor called
DTLB destructor called
ITLB destructor called
L2C destructor called
L1D destructor called
L1I destructor called
STLB destructor called
DTLB destructor called
ITLB destructor called
L2C destructor called
L1D destructor called
L1I destructor called
STLB destructor called
DTLB destructor called
ITLB destructor called
L2C destructor called
L1D destructor called
L1I destructor called
STLB destructor called
DTLB destructor called
ITLB destructor called
L2C destructor called
L1D destructor called
L1I destructor called
STLB destructor called
DTLB destructor called
ITLB destructor called
