
*** ChampSim Multicore Out-of-Order Simulator ***

Warmup Instructions: 200000000
Simulation Instructions: 200000000
Number of CPUs: 8
threads:1

L1I Configuration:
L1I_SET:64
L1I_WAY:8
L1I_RQ_SIZE:64
L1I_WQ_SIZE:64
L1I_PQ_SIZE:8
L1I_MSHR_SIZE:8

L1D Configuration:
L1D_SET:64
L1D_WAY:12
L1D_RQ_SIZE:64
L1D_WQ_SIZE:64
L1D_PQ_SIZE:8
L1D_MSHR_SIZE:16

L2C Configuration:
L2C_SET:1024
L2C_WAY:8
L2C_RQ_SIZE:32
L2C_WQ_SIZE:32
L2C_PQ_SIZE:16
L2C_MSHR_SIZE:32

LLC Configuration:
LLC_SET:2048
LLC_WAY:16
LLC SLICES:8
LLC_RQ_SIZE:64
LLC_WQ_SIZE:64
LLC_PQ_SIZE:32
LLC_MSHR_SIZE:64

Interconnect OFF
Attacker deprioritize is: OFF
Off-chip DRAM Size: 8192 MB Channels: 2 Width: 64-bit Data Rate: 3200 MT/s
PAGE SIZE in KB: 4.000000 
PAGE SIZE in MB: 0.003906 
PAGE offset in bits: 12 
CEASER-S_LLC:0
MIRAGE : 1
CEASER_LATENCY:3
REMAP : OFF
Partitions : 1
Multi-Step : OFF
BFS : OFF

CPU 0 runs /home/anubhav/spec_2017/605.mcf_s-484B.champsimtrace.xz
CPU 1 runs /home/anubhav/spec_2017/605.mcf_s-484B.champsimtrace.xz
CPU 2 runs /home/anubhav/spec_2017/605.mcf_s-484B.champsimtrace.xz
CPU 3 runs /home/anubhav/spec_2017/605.mcf_s-484B.champsimtrace.xz
CPU 4 runs /home/anubhav/spec_2017/605.mcf_s-484B.champsimtrace.xz
CPU 5 runs /home/anubhav/spec_2017/605.mcf_s-484B.champsimtrace.xz
CPU 6 runs /home/anubhav/spec_2017/605.mcf_s-484B.champsimtrace.xz
CPU 7 runs /home/anubhav/spec_2017/605.mcf_s-484B.champsimtrace.xz
CPU 0 Bimodal branch predictor
Initialize Hawkeye state
Initialize Hawkeye state
Initialize Hawkeye state
Initialize Hawkeye state
Initialize Hawkeye state
Initialize Hawkeye state
Initialize Hawkeye state
Initialize Hawkeye state
CPU 1 Bimodal branch predictor
Initialize Hawkeye state
Initialize Hawkeye state
Initialize Hawkeye state
Initialize Hawkeye state
Initialize Hawkeye state
Initialize Hawkeye state
Initialize Hawkeye state
Initialize Hawkeye state
CPU 2 Bimodal branch predictor
Initialize Hawkeye state
Initialize Hawkeye state
Initialize Hawkeye state
Initialize Hawkeye state
Initialize Hawkeye state
Initialize Hawkeye state
Initialize Hawkeye state
Initialize Hawkeye state
CPU 3 Bimodal branch predictor
Initialize Hawkeye state
Initialize Hawkeye state
Initialize Hawkeye state
Initialize Hawkeye state
Initialize Hawkeye state
Initialize Hawkeye state
Initialize Hawkeye state
Initialize Hawkeye state
CPU 4 Bimodal branch predictor
Initialize Hawkeye state
Initialize Hawkeye state
Initialize Hawkeye state
Initialize Hawkeye state
Initialize Hawkeye state
Initialize Hawkeye state
Initialize Hawkeye state
Initialize Hawkeye state
CPU 5 Bimodal branch predictor
Initialize Hawkeye state
Initialize Hawkeye state
Initialize Hawkeye state
Initialize Hawkeye state
Initialize Hawkeye state
Initialize Hawkeye state
Initialize Hawkeye state
Initialize Hawkeye state
CPU 6 Bimodal branch predictor
Initialize Hawkeye state
Initialize Hawkeye state
Initialize Hawkeye state
Initialize Hawkeye state
Initialize Hawkeye state
Initialize Hawkeye state
Initialize Hawkeye state
Initialize Hawkeye state
CPU 7 Bimodal branch predictor
Initialize Hawkeye state
Initialize Hawkeye state
Initialize Hawkeye state
Initialize Hawkeye state
Initialize Hawkeye state
Initialize Hawkeye state
Initialize Hawkeye state
Initialize Hawkeye state
Heartbeat CPU 0 instructions: 10000001 cycles: 5586478 heartbeat IPC: 1.79004 cumulative IPC: 1.79004 (Simulation time: 0 hr 40 min 7 sec) 
 Total Blocks : 262144 Invalid Blocks : 639
Heartbeat CPU 1 instructions: 10000001 cycles: 5586517 heartbeat IPC: 1.79002 cumulative IPC: 1.79002 (Simulation time: 0 hr 40 min 7 sec) 
 Total Blocks : 262144 Invalid Blocks : 639
Heartbeat CPU 2 instructions: 10000001 cycles: 5586523 heartbeat IPC: 1.79002 cumulative IPC: 1.79002 (Simulation time: 0 hr 40 min 7 sec) 
 Total Blocks : 262144 Invalid Blocks : 639
Heartbeat CPU 4 instructions: 10000001 cycles: 5586527 heartbeat IPC: 1.79002 cumulative IPC: 1.79002 (Simulation time: 0 hr 40 min 7 sec) 
 Total Blocks : 262144 Invalid Blocks : 639
Heartbeat CPU 6 instructions: 10000001 cycles: 5586541 heartbeat IPC: 1.79002 cumulative IPC: 1.79002 (Simulation time: 0 hr 40 min 7 sec) 
 Total Blocks : 262144 Invalid Blocks : 639
Heartbeat CPU 3 instructions: 10000001 cycles: 5586557 heartbeat IPC: 1.79001 cumulative IPC: 1.79001 (Simulation time: 0 hr 40 min 7 sec) 
 Total Blocks : 262144 Invalid Blocks : 639
Heartbeat CPU 5 instructions: 10000001 cycles: 5586711 heartbeat IPC: 1.78996 cumulative IPC: 1.78996 (Simulation time: 0 hr 40 min 7 sec) 
 Total Blocks : 262144 Invalid Blocks : 639
Heartbeat CPU 7 instructions: 10000001 cycles: 5586819 heartbeat IPC: 1.78993 cumulative IPC: 1.78993 (Simulation time: 0 hr 40 min 7 sec) 
 Total Blocks : 262144 Invalid Blocks : 639
Heartbeat CPU 2 instructions: 20000000 cycles: 11159483 heartbeat IPC: 1.79438 cumulative IPC: 1.7922 (Simulation time: 1 hr 35 min 50 sec) 
 Total Blocks : 262144 Invalid Blocks : 0
Heartbeat CPU 3 instructions: 20000000 cycles: 11159514 heartbeat IPC: 1.79438 cumulative IPC: 1.79219 (Simulation time: 1 hr 35 min 50 sec) 
 Total Blocks : 262144 Invalid Blocks : 0
Heartbeat CPU 0 instructions: 20000000 cycles: 11159751 heartbeat IPC: 1.79428 cumulative IPC: 1.79215 (Simulation time: 1 hr 35 min 50 sec) 
 Total Blocks : 262144 Invalid Blocks : 0
Heartbeat CPU 1 instructions: 20000000 cycles: 11160054 heartbeat IPC: 1.79419 cumulative IPC: 1.79211 (Simulation time: 1 hr 35 min 50 sec) 
 Total Blocks : 262144 Invalid Blocks : 0
Heartbeat CPU 4 instructions: 20000000 cycles: 11160078 heartbeat IPC: 1.79419 cumulative IPC: 1.7921 (Simulation time: 1 hr 35 min 50 sec) 
 Total Blocks : 262144 Invalid Blocks : 0
Heartbeat CPU 6 instructions: 20000000 cycles: 11160180 heartbeat IPC: 1.79416 cumulative IPC: 1.79209 (Simulation time: 1 hr 35 min 50 sec) 
 Total Blocks : 262144 Invalid Blocks : 0
Heartbeat CPU 7 instructions: 20000000 cycles: 11160301 heartbeat IPC: 1.79421 cumulative IPC: 1.79207 (Simulation time: 1 hr 35 min 50 sec) 
 Total Blocks : 262144 Invalid Blocks : 0
Heartbeat CPU 5 instructions: 20000000 cycles: 11160681 heartbeat IPC: 1.79405 cumulative IPC: 1.79201 (Simulation time: 1 hr 35 min 51 sec) 
 Total Blocks : 262144 Invalid Blocks : 0
Heartbeat CPU 2 instructions: 30000002 cycles: 16656741 heartbeat IPC: 1.81909 cumulative IPC: 1.80107 (Simulation time: 2 hr 14 min 26 sec) 
 Total Blocks : 262144 Invalid Blocks : 0
Heartbeat CPU 0 instructions: 30000002 cycles: 16656994 heartbeat IPC: 1.81909 cumulative IPC: 1.80105 (Simulation time: 2 hr 14 min 26 sec) 
 Total Blocks : 262144 Invalid Blocks : 0
Heartbeat CPU 4 instructions: 30000002 cycles: 16657487 heartbeat IPC: 1.81904 cumulative IPC: 1.80099 (Simulation time: 2 hr 14 min 26 sec) 
 Total Blocks : 262144 Invalid Blocks : 0
Heartbeat CPU 1 instructions: 30000002 cycles: 16657520 heartbeat IPC: 1.81902 cumulative IPC: 1.80099 (Simulation time: 2 hr 14 min 26 sec) 
 Total Blocks : 262144 Invalid Blocks : 0
Heartbeat CPU 3 instructions: 30000002 cycles: 16658071 heartbeat IPC: 1.81866 cumulative IPC: 1.80093 (Simulation time: 2 hr 14 min 26 sec) 
 Total Blocks : 262144 Invalid Blocks : 0
Heartbeat CPU 6 instructions: 30000002 cycles: 16658516 heartbeat IPC: 1.81873 cumulative IPC: 1.80088 (Simulation time: 2 hr 14 min 26 sec) 
 Total Blocks : 262144 Invalid Blocks : 0
Heartbeat CPU 5 instructions: 30000002 cycles: 16658578 heartbeat IPC: 1.81888 cumulative IPC: 1.80087 (Simulation time: 2 hr 14 min 26 sec) 
 Total Blocks : 262144 Invalid Blocks : 0
Heartbeat CPU 7 instructions: 30000002 cycles: 16658627 heartbeat IPC: 1.81874 cumulative IPC: 1.80087 (Simulation time: 2 hr 14 min 26 sec) 
 Total Blocks : 262144 Invalid Blocks : 0
Heartbeat CPU 0 instructions: 40000000 cycles: 22224280 heartbeat IPC: 1.79621 cumulative IPC: 1.79983 (Simulation time: 3 hr 17 min 33 sec) 
 Total Blocks : 262144 Invalid Blocks : 0
Heartbeat CPU 2 instructions: 40000000 cycles: 22224832 heartbeat IPC: 1.79595 cumulative IPC: 1.79979 (Simulation time: 3 hr 17 min 33 sec) 
 Total Blocks : 262144 Invalid Blocks : 0
Heartbeat CPU 3 instructions: 40000000 cycles: 22225406 heartbeat IPC: 1.79619 cumulative IPC: 1.79974 (Simulation time: 3 hr 17 min 34 sec) 
 Total Blocks : 262144 Invalid Blocks : 0
Heartbeat CPU 4 instructions: 40000000 cycles: 22225494 heartbeat IPC: 1.79597 cumulative IPC: 1.79974 (Simulation time: 3 hr 17 min 34 sec) 
 Total Blocks : 262144 Invalid Blocks : 0
Heartbeat CPU 1 instructions: 40000000 cycles: 22225947 heartbeat IPC: 1.79584 cumulative IPC: 1.7997 (Simulation time: 3 hr 17 min 34 sec) 
 Total Blocks : 262144 Invalid Blocks : 0
Heartbeat CPU 6 instructions: 40000000 cycles: 22226103 heartbeat IPC: 1.79611 cumulative IPC: 1.79969 (Simulation time: 3 hr 17 min 34 sec) 
 Total Blocks : 262144 Invalid Blocks : 0
Heartbeat CPU 5 instructions: 40000000 cycles: 22226595 heartbeat IPC: 1.79597 cumulative IPC: 1.79965 (Simulation time: 3 hr 17 min 35 sec) 
 Total Blocks : 262144 Invalid Blocks : 0
Heartbeat CPU 7 instructions: 40000000 cycles: 22226982 heartbeat IPC: 1.79586 cumulative IPC: 1.79961 (Simulation time: 3 hr 17 min 35 sec) 
 Total Blocks : 262144 Invalid Blocks : 0
Heartbeat CPU 2 instructions: 50000000 cycles: 27764218 heartbeat IPC: 1.80525 cumulative IPC: 1.80088 (Simulation time: 4 hr 29 min 46 sec) 
 Total Blocks : 262144 Invalid Blocks : 0
Heartbeat CPU 0 instructions: 50000000 cycles: 27764377 heartbeat IPC: 1.80502 cumulative IPC: 1.80087 (Simulation time: 4 hr 29 min 46 sec) 
 Total Blocks : 262144 Invalid Blocks : 0
Heartbeat CPU 3 instructions: 50000000 cycles: 27764512 heartbeat IPC: 1.80535 cumulative IPC: 1.80086 (Simulation time: 4 hr 29 min 47 sec) 
 Total Blocks : 262144 Invalid Blocks : 0
Heartbeat CPU 4 instructions: 50000000 cycles: 27765109 heartbeat IPC: 1.80518 cumulative IPC: 1.80082 (Simulation time: 4 hr 29 min 47 sec) 
 Total Blocks : 262144 Invalid Blocks : 0
Heartbeat CPU 1 instructions: 50000000 cycles: 27765170 heartbeat IPC: 1.80531 cumulative IPC: 1.80082 (Simulation time: 4 hr 29 min 47 sec) 
 Total Blocks : 262144 Invalid Blocks : 0
Heartbeat CPU 6 instructions: 50000000 cycles: 27765851 heartbeat IPC: 1.80514 cumulative IPC: 1.80077 (Simulation time: 4 hr 29 min 47 sec) 
 Total Blocks : 262144 Invalid Blocks : 0
Heartbeat CPU 5 instructions: 50000000 cycles: 27766342 heartbeat IPC: 1.80514 cumulative IPC: 1.80074 (Simulation time: 4 hr 29 min 47 sec) 
 Total Blocks : 262144 Invalid Blocks : 0
Heartbeat CPU 7 instructions: 50000000 cycles: 27767170 heartbeat IPC: 1.80499 cumulative IPC: 1.80069 (Simulation time: 4 hr 29 min 47 sec) 
 Total Blocks : 262144 Invalid Blocks : 0
Heartbeat CPU 2 instructions: 60000000 cycles: 33314475 heartbeat IPC: 1.80172 cumulative IPC: 1.80102 (Simulation time: 5 hr 32 min 36 sec) 
 Total Blocks : 262144 Invalid Blocks : 0
Heartbeat CPU 3 instructions: 60000000 cycles: 33314803 heartbeat IPC: 1.80171 cumulative IPC: 1.801 (Simulation time: 5 hr 32 min 37 sec) 
 Total Blocks : 262144 Invalid Blocks : 0
Heartbeat CPU 0 instructions: 60000000 cycles: 33315036 heartbeat IPC: 1.80159 cumulative IPC: 1.80099 (Simulation time: 5 hr 32 min 37 sec) 
 Total Blocks : 262144 Invalid Blocks : 0
Heartbeat CPU 1 instructions: 60000000 cycles: 33315306 heartbeat IPC: 1.80176 cumulative IPC: 1.80097 (Simulation time: 5 hr 32 min 37 sec) 
 Total Blocks : 262144 Invalid Blocks : 0
Heartbeat CPU 4 instructions: 60000000 cycles: 33315784 heartbeat IPC: 1.80158 cumulative IPC: 1.80095 (Simulation time: 5 hr 32 min 38 sec) 
 Total Blocks : 262144 Invalid Blocks : 0
Heartbeat CPU 6 instructions: 60000000 cycles: 33317260 heartbeat IPC: 1.80134 cumulative IPC: 1.80087 (Simulation time: 5 hr 32 min 39 sec) 
 Total Blocks : 262144 Invalid Blocks : 0
Heartbeat CPU 7 instructions: 60000000 cycles: 33317876 heartbeat IPC: 1.80157 cumulative IPC: 1.80084 (Simulation time: 5 hr 32 min 40 sec) 
 Total Blocks : 262144 Invalid Blocks : 0
Heartbeat CPU 5 instructions: 60000000 cycles: 33318220 heartbeat IPC: 1.80119 cumulative IPC: 1.80082 (Simulation time: 5 hr 32 min 40 sec) 
 Total Blocks : 262144 Invalid Blocks : 0
Heartbeat CPU 2 instructions: 70000002 cycles: 38871518 heartbeat IPC: 1.79952 cumulative IPC: 1.8008 (Simulation time: 7 hr 0 min 31 sec) 
 Total Blocks : 262144 Invalid Blocks : 0
Heartbeat CPU 3 instructions: 70000002 cycles: 38871665 heartbeat IPC: 1.79958 cumulative IPC: 1.8008 (Simulation time: 7 hr 0 min 31 sec) 
 Total Blocks : 262144 Invalid Blocks : 0
Heartbeat CPU 0 instructions: 70000002 cycles: 38871856 heartbeat IPC: 1.79959 cumulative IPC: 1.80079 (Simulation time: 7 hr 0 min 31 sec) 
 Total Blocks : 262144 Invalid Blocks : 0
Heartbeat CPU 1 instructions: 70000002 cycles: 38872167 heartbeat IPC: 1.79958 cumulative IPC: 1.80077 (Simulation time: 7 hr 0 min 31 sec) 
 Total Blocks : 262144 Invalid Blocks : 0
Heartbeat CPU 4 instructions: 70000002 cycles: 38873146 heartbeat IPC: 1.79942 cumulative IPC: 1.80073 (Simulation time: 7 hr 0 min 32 sec) 
 Total Blocks : 262144 Invalid Blocks : 0
Heartbeat CPU 6 instructions: 70000002 cycles: 38874841 heartbeat IPC: 1.79934 cumulative IPC: 1.80065 (Simulation time: 7 hr 0 min 34 sec) 
 Total Blocks : 262144 Invalid Blocks : 0
Heartbeat CPU 7 instructions: 70000002 cycles: 38875460 heartbeat IPC: 1.79934 cumulative IPC: 1.80062 (Simulation time: 7 hr 0 min 35 sec) 
 Total Blocks : 262144 Invalid Blocks : 0
Heartbeat CPU 5 instructions: 70000002 cycles: 38875697 heartbeat IPC: 1.79938 cumulative IPC: 1.80061 (Simulation time: 7 hr 0 min 35 sec) 
 Total Blocks : 262144 Invalid Blocks : 0
Heartbeat CPU 2 instructions: 80000003 cycles: 44479767 heartbeat IPC: 1.78309 cumulative IPC: 1.79857 (Simulation time: 10 hr 7 min 35 sec) 
 Total Blocks : 262144 Invalid Blocks : 0
Heartbeat CPU 0 instructions: 80000003 cycles: 44480206 heartbeat IPC: 1.78306 cumulative IPC: 1.79855 (Simulation time: 10 hr 7 min 36 sec) 
 Total Blocks : 262144 Invalid Blocks : 0
Heartbeat CPU 3 instructions: 80000003 cycles: 44480227 heartbeat IPC: 1.78299 cumulative IPC: 1.79855 (Simulation time: 10 hr 7 min 36 sec) 
 Total Blocks : 262144 Invalid Blocks : 0
Heartbeat CPU 1 instructions: 80000003 cycles: 44480396 heartbeat IPC: 1.78309 cumulative IPC: 1.79855 (Simulation time: 10 hr 7 min 36 sec) 
 Total Blocks : 262144 Invalid Blocks : 0
Heartbeat CPU 4 instructions: 80000003 cycles: 44482161 heartbeat IPC: 1.78284 cumulative IPC: 1.79847 (Simulation time: 10 hr 7 min 36 sec) 
 Total Blocks : 262144 Invalid Blocks : 0
Heartbeat CPU 6 instructions: 80000003 cycles: 44484276 heartbeat IPC: 1.78271 cumulative IPC: 1.79839 (Simulation time: 10 hr 7 min 38 sec) 
 Total Blocks : 262144 Invalid Blocks : 0
Heartbeat CPU 5 instructions: 80000003 cycles: 44484669 heartbeat IPC: 1.78286 cumulative IPC: 1.79837 (Simulation time: 10 hr 7 min 38 sec) 
 Total Blocks : 262144 Invalid Blocks : 0
Heartbeat CPU 7 instructions: 80000003 cycles: 44484752 heartbeat IPC: 1.78276 cumulative IPC: 1.79837 (Simulation time: 10 hr 7 min 38 sec) 
 Total Blocks : 262144 Invalid Blocks : 0
Heartbeat CPU 2 instructions: 90000000 cycles: 50018222 heartbeat IPC: 1.80556 cumulative IPC: 1.79934 (Simulation time: 11 hr 42 min 46 sec) 
 Total Blocks : 262144 Invalid Blocks : 0
Heartbeat CPU 3 instructions: 90000000 cycles: 50018847 heartbeat IPC: 1.8055 cumulative IPC: 1.79932 (Simulation time: 11 hr 42 min 46 sec) 
 Total Blocks : 262144 Invalid Blocks : 0
Heartbeat CPU 0 instructions: 90000000 cycles: 50021251 heartbeat IPC: 1.80471 cumulative IPC: 1.79924 (Simulation time: 11 hr 42 min 48 sec) 
 Total Blocks : 262144 Invalid Blocks : 0
Heartbeat CPU 1 instructions: 90000000 cycles: 50021429 heartbeat IPC: 1.80472 cumulative IPC: 1.79923 (Simulation time: 11 hr 42 min 48 sec) 
 Total Blocks : 262144 Invalid Blocks : 0
Heartbeat CPU 6 instructions: 90000000 cycles: 50022691 heartbeat IPC: 1.80557 cumulative IPC: 1.79918 (Simulation time: 11 hr 42 min 48 sec) 
 Total Blocks : 262144 Invalid Blocks : 0
Heartbeat CPU 5 instructions: 90000000 cycles: 50023076 heartbeat IPC: 1.80557 cumulative IPC: 1.79917 (Simulation time: 11 hr 42 min 49 sec) 
 Total Blocks : 262144 Invalid Blocks : 0
Heartbeat CPU 7 instructions: 90000000 cycles: 50023208 heartbeat IPC: 1.80556 cumulative IPC: 1.79916 (Simulation time: 11 hr 42 min 49 sec) 
 Total Blocks : 262144 Invalid Blocks : 0
Heartbeat CPU 4 instructions: 90000000 cycles: 50023799 heartbeat IPC: 1.80452 cumulative IPC: 1.79914 (Simulation time: 11 hr 42 min 49 sec) 
 Total Blocks : 262144 Invalid Blocks : 0
Heartbeat CPU 2 instructions: 100000001 cycles: 55534384 heartbeat IPC: 1.81285 cumulative IPC: 1.80069 (Simulation time: 12 hr 59 min 13 sec) 
 Total Blocks : 262144 Invalid Blocks : 0
Heartbeat CPU 3 instructions: 100000001 cycles: 55535025 heartbeat IPC: 1.81285 cumulative IPC: 1.80067 (Simulation time: 12 hr 59 min 14 sec) 
 Total Blocks : 262144 Invalid Blocks : 0
Heartbeat CPU 0 instructions: 100000001 cycles: 55538221 heartbeat IPC: 1.81259 cumulative IPC: 1.80056 (Simulation time: 12 hr 59 min 15 sec) 
 Total Blocks : 262144 Invalid Blocks : 0
Heartbeat CPU 6 instructions: 100000001 cycles: 55538693 heartbeat IPC: 1.81291 cumulative IPC: 1.80055 (Simulation time: 12 hr 59 min 16 sec) 
 Total Blocks : 262144 Invalid Blocks : 0
Heartbeat CPU 7 instructions: 100000001 cycles: 55538715 heartbeat IPC: 1.81307 cumulative IPC: 1.80055 (Simulation time: 12 hr 59 min 16 sec) 
 Total Blocks : 262144 Invalid Blocks : 0
Heartbeat CPU 1 instructions: 100000001 cycles: 55538749 heartbeat IPC: 1.81247 cumulative IPC: 1.80054 (Simulation time: 12 hr 59 min 16 sec) 
 Total Blocks : 262144 Invalid Blocks : 0
Heartbeat CPU 5 instructions: 100000001 cycles: 55539046 heartbeat IPC: 1.81292 cumulative IPC: 1.80054 (Simulation time: 12 hr 59 min 16 sec) 
 Total Blocks : 262144 Invalid Blocks : 0
Heartbeat CPU 4 instructions: 100000001 cycles: 55541577 heartbeat IPC: 1.81232 cumulative IPC: 1.80045 (Simulation time: 12 hr 59 min 16 sec) 
 Total Blocks : 262144 Invalid Blocks : 0
Heartbeat CPU 2 instructions: 110000000 cycles: 61029640 heartbeat IPC: 1.81975 cumulative IPC: 1.8024 (Simulation time: 14 hr 1 min 40 sec) 
 Total Blocks : 262144 Invalid Blocks : 0
Heartbeat CPU 3 instructions: 110000000 cycles: 61030494 heartbeat IPC: 1.81968 cumulative IPC: 1.80238 (Simulation time: 14 hr 1 min 40 sec) 
 Total Blocks : 262144 Invalid Blocks : 0
Heartbeat CPU 0 instructions: 110000000 cycles: 61033525 heartbeat IPC: 1.81974 cumulative IPC: 1.80229 (Simulation time: 14 hr 1 min 43 sec) 
 Total Blocks : 262144 Invalid Blocks : 0
Heartbeat CPU 1 instructions: 110000000 cycles: 61033839 heartbeat IPC: 1.81981 cumulative IPC: 1.80228 (Simulation time: 14 hr 1 min 43 sec) 
 Total Blocks : 262144 Invalid Blocks : 0
Heartbeat CPU 5 instructions: 110000000 cycles: 61034444 heartbeat IPC: 1.8197 cumulative IPC: 1.80226 (Simulation time: 14 hr 1 min 43 sec) 
 Total Blocks : 262144 Invalid Blocks : 0
Heartbeat CPU 6 instructions: 110000000 cycles: 61035828 heartbeat IPC: 1.81913 cumulative IPC: 1.80222 (Simulation time: 14 hr 1 min 45 sec) 
 Total Blocks : 262144 Invalid Blocks : 0
Heartbeat CPU 7 instructions: 110000000 cycles: 61035868 heartbeat IPC: 1.81912 cumulative IPC: 1.80222 (Simulation time: 14 hr 1 min 45 sec) 
 Total Blocks : 262144 Invalid Blocks : 0
Heartbeat CPU 4 instructions: 110000000 cycles: 61036685 heartbeat IPC: 1.8198 cumulative IPC: 1.80219 (Simulation time: 14 hr 1 min 45 sec) 
 Total Blocks : 262144 Invalid Blocks : 0
Heartbeat CPU 2 instructions: 120000000 cycles: 66541721 heartbeat IPC: 1.8142 cumulative IPC: 1.80338 (Simulation time: 15 hr 4 min 46 sec) 
 Total Blocks : 262144 Invalid Blocks : 0
Heartbeat CPU 3 instructions: 120000000 cycles: 66544011 heartbeat IPC: 1.81372 cumulative IPC: 1.80332 (Simulation time: 15 hr 4 min 48 sec) 
 Total Blocks : 262144 Invalid Blocks : 0
Heartbeat CPU 0 instructions: 120000000 cycles: 66545520 heartbeat IPC: 1.81423 cumulative IPC: 1.80328 (Simulation time: 15 hr 4 min 50 sec) 
 Total Blocks : 262144 Invalid Blocks : 0
Heartbeat CPU 1 instructions: 120000000 cycles: 66546345 heartbeat IPC: 1.81406 cumulative IPC: 1.80325 (Simulation time: 15 hr 4 min 50 sec) 
 Total Blocks : 262144 Invalid Blocks : 0
Heartbeat CPU 5 instructions: 120000000 cycles: 66546589 heartbeat IPC: 1.81418 cumulative IPC: 1.80325 (Simulation time: 15 hr 4 min 50 sec) 
 Total Blocks : 262144 Invalid Blocks : 0
Heartbeat CPU 4 instructions: 120000000 cycles: 66548886 heartbeat IPC: 1.81416 cumulative IPC: 1.80319 (Simulation time: 15 hr 4 min 51 sec) 
 Total Blocks : 262144 Invalid Blocks : 0
Heartbeat CPU 6 instructions: 120000000 cycles: 66549791 heartbeat IPC: 1.81358 cumulative IPC: 1.80316 (Simulation time: 15 hr 4 min 52 sec) 
 Total Blocks : 262144 Invalid Blocks : 0
Heartbeat CPU 7 instructions: 120000000 cycles: 66550355 heartbeat IPC: 1.81341 cumulative IPC: 1.80315 (Simulation time: 15 hr 4 min 53 sec) 
 Total Blocks : 262144 Invalid Blocks : 0
Heartbeat CPU 2 instructions: 130000001 cycles: 72092782 heartbeat IPC: 1.80146 cumulative IPC: 1.80323 (Simulation time: 16 hr 25 min 11 sec) 
 Total Blocks : 262144 Invalid Blocks : 0
Heartbeat CPU 3 instructions: 130000001 cycles: 72093887 heartbeat IPC: 1.80184 cumulative IPC: 1.8032 (Simulation time: 16 hr 25 min 13 sec) 
 Total Blocks : 262144 Invalid Blocks : 0
Heartbeat CPU 1 instructions: 130000001 cycles: 72096067 heartbeat IPC: 1.80189 cumulative IPC: 1.80315 (Simulation time: 16 hr 25 min 15 sec) 
 Total Blocks : 262144 Invalid Blocks : 0
Heartbeat CPU 0 instructions: 130000001 cycles: 72097197 heartbeat IPC: 1.80126 cumulative IPC: 1.80312 (Simulation time: 16 hr 25 min 16 sec) 
 Total Blocks : 262144 Invalid Blocks : 0
Heartbeat CPU 5 instructions: 130000001 cycles: 72097257 heartbeat IPC: 1.80159 cumulative IPC: 1.80312 (Simulation time: 16 hr 25 min 16 sec) 
 Total Blocks : 262144 Invalid Blocks : 0
Heartbeat CPU 4 instructions: 130000001 cycles: 72100678 heartbeat IPC: 1.80122 cumulative IPC: 1.80303 (Simulation time: 16 hr 25 min 20 sec) 
 Total Blocks : 262144 Invalid Blocks : 0
Heartbeat CPU 7 instructions: 130000001 cycles: 72100903 heartbeat IPC: 1.80162 cumulative IPC: 1.80303 (Simulation time: 16 hr 25 min 20 sec) 
 Total Blocks : 262144 Invalid Blocks : 0
Heartbeat CPU 6 instructions: 130000001 cycles: 72101372 heartbeat IPC: 1.80129 cumulative IPC: 1.80302 (Simulation time: 16 hr 25 min 21 sec) 
 Total Blocks : 262144 Invalid Blocks : 0
Heartbeat CPU 2 instructions: 140000003 cycles: 77627617 heartbeat IPC: 1.80674 cumulative IPC: 1.80348 (Simulation time: 17 hr 26 min 10 sec) 
 Total Blocks : 262144 Invalid Blocks : 0
Heartbeat CPU 3 instructions: 140000003 cycles: 77628977 heartbeat IPC: 1.80666 cumulative IPC: 1.80345 (Simulation time: 17 hr 26 min 10 sec) 
 Total Blocks : 262144 Invalid Blocks : 0
Heartbeat CPU 0 instructions: 140000003 cycles: 77630675 heartbeat IPC: 1.80718 cumulative IPC: 1.80341 (Simulation time: 17 hr 26 min 11 sec) 
 Total Blocks : 262144 Invalid Blocks : 0
Heartbeat CPU 1 instructions: 140000003 cycles: 77630958 heartbeat IPC: 1.80672 cumulative IPC: 1.8034 (Simulation time: 17 hr 26 min 11 sec) 
 Total Blocks : 262144 Invalid Blocks : 0
Heartbeat CPU 5 instructions: 140000003 cycles: 77632298 heartbeat IPC: 1.80667 cumulative IPC: 1.80337 (Simulation time: 17 hr 26 min 12 sec) 
 Total Blocks : 262144 Invalid Blocks : 0
Heartbeat CPU 4 instructions: 140000003 cycles: 77636105 heartbeat IPC: 1.80655 cumulative IPC: 1.80328 (Simulation time: 17 hr 26 min 13 sec) 
 Total Blocks : 262144 Invalid Blocks : 0
Heartbeat CPU 7 instructions: 140000003 cycles: 77636160 heartbeat IPC: 1.8066 cumulative IPC: 1.80328 (Simulation time: 17 hr 26 min 13 sec) 
 Total Blocks : 262144 Invalid Blocks : 0
Heartbeat CPU 6 instructions: 140000003 cycles: 77636589 heartbeat IPC: 1.80661 cumulative IPC: 1.80327 (Simulation time: 17 hr 26 min 14 sec) 
 Total Blocks : 262144 Invalid Blocks : 0
Heartbeat CPU 2 instructions: 150000000 cycles: 83144301 heartbeat IPC: 1.81268 cumulative IPC: 1.80409 (Simulation time: 18 hr 47 min 26 sec) 
 Total Blocks : 262144 Invalid Blocks : 0
Heartbeat CPU 3 instructions: 150000000 cycles: 83146045 heartbeat IPC: 1.81256 cumulative IPC: 1.80405 (Simulation time: 18 hr 47 min 27 sec) 
 Total Blocks : 262144 Invalid Blocks : 0
Heartbeat CPU 0 instructions: 150000000 cycles: 83148324 heartbeat IPC: 1.81237 cumulative IPC: 1.80401 (Simulation time: 18 hr 47 min 29 sec) 
 Total Blocks : 262144 Invalid Blocks : 0
Heartbeat CPU 1 instructions: 150000000 cycles: 83148482 heartbeat IPC: 1.81241 cumulative IPC: 1.804 (Simulation time: 18 hr 47 min 29 sec) 
 Total Blocks : 262144 Invalid Blocks : 0
Heartbeat CPU 5 instructions: 150000000 cycles: 83150802 heartbeat IPC: 1.81208 cumulative IPC: 1.80395 (Simulation time: 18 hr 47 min 30 sec) 
 Total Blocks : 262144 Invalid Blocks : 0
Heartbeat CPU 4 instructions: 150000000 cycles: 83154054 heartbeat IPC: 1.81227 cumulative IPC: 1.80388 (Simulation time: 18 hr 47 min 31 sec) 
 Total Blocks : 262144 Invalid Blocks : 0
Heartbeat CPU 7 instructions: 150000000 cycles: 83154097 heartbeat IPC: 1.81227 cumulative IPC: 1.80388 (Simulation time: 18 hr 47 min 31 sec) 
 Total Blocks : 262144 Invalid Blocks : 0
Heartbeat CPU 6 instructions: 150000000 cycles: 83154690 heartbeat IPC: 1.81222 cumulative IPC: 1.80387 (Simulation time: 18 hr 47 min 31 sec) 
 Total Blocks : 262144 Invalid Blocks : 0
Heartbeat CPU 2 instructions: 160000001 cycles: 88698471 heartbeat IPC: 1.80045 cumulative IPC: 1.80386 (Simulation time: 20 hr 48 min 43 sec) 
 Total Blocks : 262144 Invalid Blocks : 0
Heartbeat CPU 3 instructions: 160000001 cycles: 88700125 heartbeat IPC: 1.80048 cumulative IPC: 1.80383 (Simulation time: 20 hr 48 min 46 sec) 
 Total Blocks : 262144 Invalid Blocks : 0
Heartbeat CPU 0 instructions: 160000001 cycles: 88701237 heartbeat IPC: 1.80086 cumulative IPC: 1.80381 (Simulation time: 20 hr 48 min 48 sec) 
 Total Blocks : 262144 Invalid Blocks : 0
Heartbeat CPU 1 instructions: 160000001 cycles: 88703093 heartbeat IPC: 1.80031 cumulative IPC: 1.80377 (Simulation time: 20 hr 48 min 49 sec) 
 Total Blocks : 262144 Invalid Blocks : 0
Heartbeat CPU 5 instructions: 160000001 cycles: 88703968 heartbeat IPC: 1.80077 cumulative IPC: 1.80375 (Simulation time: 20 hr 48 min 51 sec) 
 Total Blocks : 262144 Invalid Blocks : 0
Heartbeat CPU 4 instructions: 160000001 cycles: 88707183 heartbeat IPC: 1.80079 cumulative IPC: 1.80369 (Simulation time: 20 hr 48 min 55 sec) 
 Total Blocks : 262144 Invalid Blocks : 0
Heartbeat CPU 7 instructions: 160000001 cycles: 88707653 heartbeat IPC: 1.80065 cumulative IPC: 1.80368 (Simulation time: 20 hr 48 min 56 sec) 
 Total Blocks : 262144 Invalid Blocks : 0
Heartbeat CPU 6 instructions: 160000001 cycles: 88708985 heartbeat IPC: 1.80041 cumulative IPC: 1.80365 (Simulation time: 20 hr 48 min 57 sec) 
 Total Blocks : 262144 Invalid Blocks : 0
Heartbeat CPU 3 instructions: 170000001 cycles: 94226330 heartbeat IPC: 1.80956 cumulative IPC: 1.80417 (Simulation time: 22 hr 25 min 42 sec) 
 Total Blocks : 262144 Invalid Blocks : 0
Heartbeat CPU 2 instructions: 170000001 cycles: 94230881 heartbeat IPC: 1.80753 cumulative IPC: 1.80408 (Simulation time: 22 hr 25 min 44 sec) 
 Total Blocks : 262144 Invalid Blocks : 0
Heartbeat CPU 0 instructions: 170000001 cycles: 94232919 heartbeat IPC: 1.80777 cumulative IPC: 1.80404 (Simulation time: 22 hr 25 min 45 sec) 
 Total Blocks : 262144 Invalid Blocks : 0
Heartbeat CPU 1 instructions: 170000001 cycles: 94234517 heartbeat IPC: 1.80785 cumulative IPC: 1.80401 (Simulation time: 22 hr 25 min 46 sec) 
 Total Blocks : 262144 Invalid Blocks : 0
Heartbeat CPU 5 instructions: 170000001 cycles: 94236614 heartbeat IPC: 1.80745 cumulative IPC: 1.80397 (Simulation time: 22 hr 25 min 47 sec) 
 Total Blocks : 262144 Invalid Blocks : 0
Heartbeat CPU 4 instructions: 170000001 cycles: 94239876 heartbeat IPC: 1.80744 cumulative IPC: 1.80391 (Simulation time: 22 hr 25 min 50 sec) 
 Total Blocks : 262144 Invalid Blocks : 0
Heartbeat CPU 7 instructions: 170000001 cycles: 94240790 heartbeat IPC: 1.80729 cumulative IPC: 1.80389 (Simulation time: 22 hr 25 min 50 sec) 
 Total Blocks : 262144 Invalid Blocks : 0
Heartbeat CPU 6 instructions: 170000001 cycles: 94241737 heartbeat IPC: 1.80742 cumulative IPC: 1.80387 (Simulation time: 22 hr 25 min 51 sec) 
 Total Blocks : 262144 Invalid Blocks : 0
Heartbeat CPU 2 instructions: 180000001 cycles: 99727255 heartbeat IPC: 1.81938 cumulative IPC: 1.80492 (Simulation time: 24 hr 11 min 57 sec) 
 Total Blocks : 262144 Invalid Blocks : 0
Heartbeat CPU 0 instructions: 180000001 cycles: 99729653 heartbeat IPC: 1.81926 cumulative IPC: 1.80488 (Simulation time: 24 hr 12 min 0 sec) 
 Total Blocks : 262144 Invalid Blocks : 0
Heartbeat CPU 1 instructions: 180000001 cycles: 99730816 heartbeat IPC: 1.81941 cumulative IPC: 1.80486 (Simulation time: 24 hr 12 min 0 sec) 
 Total Blocks : 262144 Invalid Blocks : 0
Heartbeat CPU 3 instructions: 180000001 cycles: 99732123 heartbeat IPC: 1.81627 cumulative IPC: 1.80483 (Simulation time: 24 hr 12 min 1 sec) 
 Total Blocks : 262144 Invalid Blocks : 0
Heartbeat CPU 5 instructions: 180000001 cycles: 99733411 heartbeat IPC: 1.81924 cumulative IPC: 1.80481 (Simulation time: 24 hr 12 min 2 sec) 
 Total Blocks : 262144 Invalid Blocks : 0
Heartbeat CPU 6 instructions: 180000001 cycles: 99737051 heartbeat IPC: 1.81973 cumulative IPC: 1.80475 (Simulation time: 24 hr 12 min 6 sec) 
 Total Blocks : 262144 Invalid Blocks : 0
Heartbeat CPU 7 instructions: 180000001 cycles: 99747059 heartbeat IPC: 1.81611 cumulative IPC: 1.80456 (Simulation time: 24 hr 12 min 13 sec) 
 Total Blocks : 262144 Invalid Blocks : 0
Heartbeat CPU 4 instructions: 180000001 cycles: 99748197 heartbeat IPC: 1.81544 cumulative IPC: 1.80454 (Simulation time: 24 hr 12 min 14 sec) 
 Total Blocks : 262144 Invalid Blocks : 0
Heartbeat CPU 2 instructions: 190000000 cycles: 105231810 heartbeat IPC: 1.81668 cumulative IPC: 1.80554 (Simulation time: 25 hr 55 min 58 sec) 
 Total Blocks : 262144 Invalid Blocks : 0
Heartbeat CPU 0 instructions: 190000000 cycles: 105234233 heartbeat IPC: 1.81667 cumulative IPC: 1.8055 (Simulation time: 25 hr 56 min 0 sec) 
 Total Blocks : 262144 Invalid Blocks : 0
Heartbeat CPU 3 instructions: 190000000 cycles: 105235913 heartbeat IPC: 1.81693 cumulative IPC: 1.80547 (Simulation time: 25 hr 56 min 3 sec) 
 Total Blocks : 262144 Invalid Blocks : 0
Heartbeat CPU 1 instructions: 190000000 cycles: 105236518 heartbeat IPC: 1.8163 cumulative IPC: 1.80546 (Simulation time: 25 hr 56 min 3 sec) 
 Total Blocks : 262144 Invalid Blocks : 0
Heartbeat CPU 5 instructions: 190000000 cycles: 105238296 heartbeat IPC: 1.81657 cumulative IPC: 1.80543 (Simulation time: 25 hr 56 min 5 sec) 
 Total Blocks : 262144 Invalid Blocks : 0
Heartbeat CPU 6 instructions: 190000000 cycles: 105241063 heartbeat IPC: 1.81686 cumulative IPC: 1.80538 (Simulation time: 25 hr 56 min 6 sec) 
 Total Blocks : 262144 Invalid Blocks : 0
Heartbeat CPU 7 instructions: 190000000 cycles: 105251632 heartbeat IPC: 1.81667 cumulative IPC: 1.8052 (Simulation time: 25 hr 56 min 15 sec) 
 Total Blocks : 262144 Invalid Blocks : 0
Heartbeat CPU 4 instructions: 190000000 cycles: 105252633 heartbeat IPC: 1.81672 cumulative IPC: 1.80518 (Simulation time: 25 hr 56 min 18 sec) 
 Total Blocks : 262144 Invalid Blocks : 0
Heartbeat CPU 2 instructions: 200000003 cycles: 110754752 heartbeat IPC: 1.81063 cumulative IPC: 1.80579 (Simulation time: 27 hr 16 min 25 sec) 
 Total Blocks : 262144 Invalid Blocks : 0
Heartbeat CPU 0 instructions: 200000003 cycles: 110756264 heartbeat IPC: 1.81093 cumulative IPC: 1.80577 (Simulation time: 27 hr 16 min 26 sec) 
 Total Blocks : 262144 Invalid Blocks : 0
Heartbeat CPU 3 instructions: 200000003 cycles: 110759719 heartbeat IPC: 1.81035 cumulative IPC: 1.80571 (Simulation time: 27 hr 16 min 28 sec) 
 Total Blocks : 262144 Invalid Blocks : 0
Heartbeat CPU 1 instructions: 200000003 cycles: 110760105 heartbeat IPC: 1.81042 cumulative IPC: 1.8057 (Simulation time: 27 hr 16 min 29 sec) 
 Total Blocks : 262144 Invalid Blocks : 0
Heartbeat CPU 5 instructions: 200000003 cycles: 110761579 heartbeat IPC: 1.81052 cumulative IPC: 1.80568 (Simulation time: 27 hr 16 min 29 sec) 
 Total Blocks : 262144 Invalid Blocks : 0
Heartbeat CPU 6 instructions: 200000003 cycles: 110763335 heartbeat IPC: 1.81085 cumulative IPC: 1.80565 (Simulation time: 27 hr 16 min 31 sec) 
 Total Blocks : 262144 Invalid Blocks : 0
Heartbeat CPU 7 instructions: 200000003 cycles: 110775605 heartbeat IPC: 1.81029 cumulative IPC: 1.80545 (Simulation time: 27 hr 16 min 36 sec) 
 Total Blocks : 262144 Invalid Blocks : 0
Heartbeat CPU 4 instructions: 200000003 cycles: 110776193 heartbeat IPC: 1.81043 cumulative IPC: 1.80544 (Simulation time: 27 hr 16 min 37 sec) 
 Total Blocks : 262144 Invalid Blocks : 0

Warmup complete CPU 0 instructions: 200039548 cycles: 110776193 (Simulation time: 27 hr 16 min 37 sec) 
Warmup complete CPU 1 instructions: 200031756 cycles: 110776193 (Simulation time: 27 hr 16 min 37 sec) 
Warmup complete CPU 2 instructions: 200042318 cycles: 110776193 (Simulation time: 27 hr 16 min 37 sec) 
Warmup complete CPU 3 instructions: 200032503 cycles: 110776193 (Simulation time: 27 hr 16 min 37 sec) 
Warmup complete CPU 4 instructions: 200000003 cycles: 110776193 (Simulation time: 27 hr 16 min 37 sec) 
Warmup complete CPU 5 instructions: 200028907 cycles: 110776192 (Simulation time: 27 hr 16 min 37 sec) 
Warmup complete CPU 6 instructions: 200025266 cycles: 110776192 (Simulation time: 27 hr 16 min 37 sec) 
Warmup complete CPU 7 instructions: 200001125 cycles: 110776192 (Simulation time: 27 hr 16 min 37 sec) 

Heartbeat CPU 0 instructions: 210000002 cycles: 159252150 heartbeat IPC: 0.206203 cumulative IPC: 0.205472 (Simulation time: 31 hr 13 min 44 sec) 
 Total Blocks : 262144 Invalid Blocks : 0
Heartbeat CPU 3 instructions: 210000002 cycles: 159273410 heartbeat IPC: 0.206127 cumulative IPC: 0.205527 (Simulation time: 31 hr 13 min 54 sec) 
 Total Blocks : 262144 Invalid Blocks : 0
Heartbeat CPU 2 instructions: 210000002 cycles: 159305995 heartbeat IPC: 0.205968 cumulative IPC: 0.205187 (Simulation time: 31 hr 14 min 12 sec) 
 Total Blocks : 262144 Invalid Blocks : 0
Heartbeat CPU 4 instructions: 210000002 cycles: 159447713 heartbeat IPC: 0.205459 cumulative IPC: 0.205459 (Simulation time: 31 hr 15 min 22 sec) 
 Total Blocks : 262144 Invalid Blocks : 0
Heartbeat CPU 1 instructions: 210000002 cycles: 159726333 heartbeat IPC: 0.204222 cumulative IPC: 0.203641 (Simulation time: 31 hr 17 min 22 sec) 
 Total Blocks : 262144 Invalid Blocks : 0
Heartbeat CPU 5 instructions: 210000002 cycles: 159778357 heartbeat IPC: 0.204012 cumulative IPC: 0.203483 (Simulation time: 31 hr 17 min 44 sec) 
 Total Blocks : 262144 Invalid Blocks : 0
Heartbeat CPU 6 instructions: 210000002 cycles: 159949042 heartbeat IPC: 0.203311 cumulative IPC: 0.20285 (Simulation time: 31 hr 19 min 0 sec) 
 Total Blocks : 262144 Invalid Blocks : 0
Heartbeat CPU 7 instructions: 210000002 cycles: 160009950 heartbeat IPC: 0.20311 cumulative IPC: 0.20309 (Simulation time: 31 hr 19 min 26 sec) 
 Total Blocks : 262144 Invalid Blocks : 0
Heartbeat CPU 3 instructions: 220000000 cycles: 190909983 heartbeat IPC: 0.31609 cumulative IPC: 0.249177 (Simulation time: 32 hr 54 min 32 sec) 
 Total Blocks : 262144 Invalid Blocks : 0
Heartbeat CPU 0 instructions: 220000000 cycles: 190917210 heartbeat IPC: 0.315805 cumulative IPC: 0.249067 (Simulation time: 32 hr 54 min 38 sec) 
 Total Blocks : 262144 Invalid Blocks : 0
Heartbeat CPU 2 instructions: 220000000 cycles: 191088707 heartbeat IPC: 0.314636 cumulative IPC: 0.2485 (Simulation time: 32 hr 57 min 24 sec) 
 Total Blocks : 262144 Invalid Blocks : 0
Heartbeat CPU 4 instructions: 220000000 cycles: 191287219 heartbeat IPC: 0.314075 cumulative IPC: 0.248413 (Simulation time: 33 hr 0 min 33 sec) 
 Total Blocks : 262144 Invalid Blocks : 0
Heartbeat CPU 1 instructions: 220000000 cycles: 191464589 heartbeat IPC: 0.315077 cumulative IPC: 0.247474 (Simulation time: 33 hr 2 min 48 sec) 
 Total Blocks : 262144 Invalid Blocks : 0
Heartbeat CPU 5 instructions: 220000000 cycles: 191539671 heartbeat IPC: 0.314848 cumulative IPC: 0.247279 (Simulation time: 33 hr 3 min 36 sec) 
 Total Blocks : 262144 Invalid Blocks : 0
Heartbeat CPU 6 instructions: 220000000 cycles: 191541672 heartbeat IPC: 0.316529 cumulative IPC: 0.247318 (Simulation time: 33 hr 3 min 38 sec) 
 Total Blocks : 262144 Invalid Blocks : 0
Heartbeat CPU 7 instructions: 220000000 cycles: 191575635 heartbeat IPC: 0.3168 cumulative IPC: 0.247513 (Simulation time: 33 hr 4 min 1 sec) 
 Total Blocks : 262144 Invalid Blocks : 0
Heartbeat CPU 0 instructions: 230000002 cycles: 219853232 heartbeat IPC: 0.34559 cumulative IPC: 0.274672 (Simulation time: 36 hr 13 min 58 sec) 
 Total Blocks : 262144 Invalid Blocks : 0
Heartbeat CPU 3 instructions: 230000002 cycles: 219881347 heartbeat IPC: 0.345169 cumulative IPC: 0.274666 (Simulation time: 36 hr 14 min 14 sec) 
 Total Blocks : 262144 Invalid Blocks : 0
Heartbeat CPU 2 instructions: 230000002 cycles: 220311551 heartbeat IPC: 0.342198 cumulative IPC: 0.273498 (Simulation time: 36 hr 16 min 32 sec) 
 Total Blocks : 262144 Invalid Blocks : 0
Heartbeat CPU 4 instructions: 230000002 cycles: 220471905 heartbeat IPC: 0.342646 cumulative IPC: 0.273484 (Simulation time: 36 hr 17 min 15 sec) 
 Total Blocks : 262144 Invalid Blocks : 0
Heartbeat CPU 1 instructions: 230000002 cycles: 220526259 heartbeat IPC: 0.344096 cumulative IPC: 0.273059 (Simulation time: 36 hr 17 min 31 sec) 
 Total Blocks : 262144 Invalid Blocks : 0
Heartbeat CPU 5 instructions: 230000002 cycles: 220527824 heartbeat IPC: 0.344969 cumulative IPC: 0.273081 (Simulation time: 36 hr 17 min 31 sec) 
 Total Blocks : 262144 Invalid Blocks : 0
Heartbeat CPU 6 instructions: 230000002 cycles: 220603503 heartbeat IPC: 0.344094 cumulative IPC: 0.272926 (Simulation time: 36 hr 17 min 49 sec) 
 Total Blocks : 262144 Invalid Blocks : 0
Heartbeat CPU 7 instructions: 230000002 cycles: 220627016 heartbeat IPC: 0.344218 cumulative IPC: 0.273087 (Simulation time: 36 hr 17 min 56 sec) 
 Total Blocks : 262144 Invalid Blocks : 0
Heartbeat CPU 0 instructions: 240000000 cycles: 254624005 heartbeat IPC: 0.287598 cumulative IPC: 0.277797 (Simulation time: 39 hr 25 min 46 sec) 
 Total Blocks : 262144 Invalid Blocks : 0
Heartbeat CPU 3 instructions: 240000000 cycles: 254692875 heartbeat IPC: 0.287261 cumulative IPC: 0.277713 (Simulation time: 39 hr 26 min 4 sec) 
 Total Blocks : 262144 Invalid Blocks : 0
Heartbeat CPU 2 instructions: 240000000 cycles: 254698509 heartbeat IPC: 0.290808 cumulative IPC: 0.277634 (Simulation time: 39 hr 26 min 5 sec) 
 Total Blocks : 262144 Invalid Blocks : 0
Heartbeat CPU 4 instructions: 240000000 cycles: 254715335 heartbeat IPC: 0.292027 cumulative IPC: 0.277895 (Simulation time: 39 hr 26 min 10 sec) 
 Total Blocks : 262144 Invalid Blocks : 0
Heartbeat CPU 5 instructions: 240000000 cycles: 254935051 heartbeat IPC: 0.290637 cumulative IPC: 0.277271 (Simulation time: 39 hr 27 min 6 sec) 
 Total Blocks : 262144 Invalid Blocks : 0
Heartbeat CPU 7 instructions: 240000000 cycles: 254963750 heartbeat IPC: 0.291233 cumulative IPC: 0.277409 (Simulation time: 39 hr 27 min 14 sec) 
 Total Blocks : 262144 Invalid Blocks : 0
Heartbeat CPU 1 instructions: 240000000 cycles: 254977337 heartbeat IPC: 0.290267 cumulative IPC: 0.27717 (Simulation time: 39 hr 27 min 17 sec) 
 Total Blocks : 262144 Invalid Blocks : 0
Heartbeat CPU 6 instructions: 240000000 cycles: 255025385 heartbeat IPC: 0.290513 cumulative IPC: 0.277123 (Simulation time: 39 hr 27 min 28 sec) 
 Total Blocks : 262144 Invalid Blocks : 0
Heartbeat CPU 4 instructions: 250000000 cycles: 296536920 heartbeat IPC: 0.239111 cumulative IPC: 0.269163 (Simulation time: 42 hr 30 min 25 sec) 
 Total Blocks : 262144 Invalid Blocks : 0
Heartbeat CPU 0 instructions: 250000000 cycles: 296561294 heartbeat IPC: 0.238451 cumulative IPC: 0.268915 (Simulation time: 42 hr 30 min 41 sec) 
 Total Blocks : 262144 Invalid Blocks : 0
Heartbeat CPU 2 instructions: 250000000 cycles: 296827953 heartbeat IPC: 0.237364 cumulative IPC: 0.268515 (Simulation time: 42 hr 34 min 7 sec) 
 Total Blocks : 262144 Invalid Blocks : 0
Heartbeat CPU 3 instructions: 250000000 cycles: 296866283 heartbeat IPC: 0.237116 cumulative IPC: 0.268512 (Simulation time: 42 hr 34 min 42 sec) 
 Total Blocks : 262144 Invalid Blocks : 0
Heartbeat CPU 7 instructions: 250000000 cycles: 297121562 heartbeat IPC: 0.237204 cumulative IPC: 0.268313 (Simulation time: 42 hr 38 min 14 sec) 
 Total Blocks : 262144 Invalid Blocks : 0
Heartbeat CPU 5 instructions: 250000000 cycles: 297151642 heartbeat IPC: 0.236874 cumulative IPC: 0.268121 (Simulation time: 42 hr 38 min 36 sec) 
 Total Blocks : 262144 Invalid Blocks : 0
Heartbeat CPU 6 instructions: 250000000 cycles: 297229881 heartbeat IPC: 0.236942 cumulative IPC: 0.268028 (Simulation time: 42 hr 39 min 37 sec) 
 Total Blocks : 262144 Invalid Blocks : 0
Heartbeat CPU 1 instructions: 250000000 cycles: 297235267 heartbeat IPC: 0.236642 cumulative IPC: 0.267985 (Simulation time: 42 hr 39 min 40 sec) 
 Total Blocks : 262144 Invalid Blocks : 0
Heartbeat CPU 4 instructions: 260000000 cycles: 321352954 heartbeat IPC: 0.402965 cumulative IPC: 0.284932 (Simulation time: 44 hr 31 min 47 sec) 
 Total Blocks : 262144 Invalid Blocks : 0
Heartbeat CPU 0 instructions: 260000000 cycles: 321405469 heartbeat IPC: 0.402509 cumulative IPC: 0.284673 (Simulation time: 44 hr 32 min 56 sec) 
 Total Blocks : 262144 Invalid Blocks : 0
Heartbeat CPU 2 instructions: 260000000 cycles: 321666562 heartbeat IPC: 0.402599 cumulative IPC: 0.284307 (Simulation time: 44 hr 37 min 29 sec) 
 Total Blocks : 262144 Invalid Blocks : 0
Heartbeat CPU 3 instructions: 260000000 cycles: 321744591 heartbeat IPC: 0.401957 cumulative IPC: 0.284249 (Simulation time: 44 hr 38 min 43 sec) 
 Total Blocks : 262144 Invalid Blocks : 0
Heartbeat CPU 7 instructions: 260000000 cycles: 321799869 heartbeat IPC: 0.405214 cumulative IPC: 0.284323 (Simulation time: 44 hr 39 min 26 sec) 
 Total Blocks : 262144 Invalid Blocks : 0
Heartbeat CPU 5 instructions: 260000000 cycles: 321836278 heartbeat IPC: 0.40511 cumulative IPC: 0.284142 (Simulation time: 44 hr 39 min 50 sec) 
 Total Blocks : 262144 Invalid Blocks : 0
Heartbeat CPU 6 instructions: 260000000 cycles: 321900391 heartbeat IPC: 0.405342 cumulative IPC: 0.284073 (Simulation time: 44 hr 40 min 42 sec) 
 Total Blocks : 262144 Invalid Blocks : 0
Heartbeat CPU 1 instructions: 260000000 cycles: 321927745 heartbeat IPC: 0.404982 cumulative IPC: 0.284006 (Simulation time: 44 hr 41 min 7 sec) 
 Total Blocks : 262144 Invalid Blocks : 0
Heartbeat CPU 4 instructions: 270000001 cycles: 360137723 heartbeat IPC: 0.257833 cumulative IPC: 0.280717 (Simulation time: 50 hr 2 min 13 sec) 
 Total Blocks : 262144 Invalid Blocks : 0
Heartbeat CPU 0 instructions: 270000001 cycles: 360157528 heartbeat IPC: 0.258051 cumulative IPC: 0.280536 (Simulation time: 50 hr 2 min 27 sec) 
 Total Blocks : 262144 Invalid Blocks : 0
Heartbeat CPU 2 instructions: 270000001 cycles: 360195102 heartbeat IPC: 0.259548 cumulative IPC: 0.280483 (Simulation time: 50 hr 2 min 59 sec) 
 Total Blocks : 262144 Invalid Blocks : 0
Heartbeat CPU 3 instructions: 270000001 cycles: 360223417 heartbeat IPC: 0.259883 cumulative IPC: 0.28049 (Simulation time: 50 hr 3 min 23 sec) 
 Total Blocks : 262144 Invalid Blocks : 0
Heartbeat CPU 5 instructions: 270000001 cycles: 360324801 heartbeat IPC: 0.259818 cumulative IPC: 0.280391 (Simulation time: 50 hr 4 min 54 sec) 
 Total Blocks : 262144 Invalid Blocks : 0
Heartbeat CPU 7 instructions: 270000001 cycles: 360337676 heartbeat IPC: 0.259485 cumulative IPC: 0.280488 (Simulation time: 50 hr 5 min 8 sec) 
 Total Blocks : 262144 Invalid Blocks : 0
Heartbeat CPU 6 instructions: 270000001 cycles: 360351788 heartbeat IPC: 0.260069 cumulative IPC: 0.280375 (Simulation time: 50 hr 5 min 24 sec) 
 Total Blocks : 262144 Invalid Blocks : 0
Heartbeat CPU 1 instructions: 270000001 cycles: 360360183 heartbeat IPC: 0.260197 cumulative IPC: 0.280339 (Simulation time: 50 hr 5 min 32 sec) 
 Total Blocks : 262144 Invalid Blocks : 0
Heartbeat CPU 0 instructions: 280000001 cycles: 394491707 heartbeat IPC: 0.291255 cumulative IPC: 0.281833 (Simulation time: 52 hr 46 min 41 sec) 
 Total Blocks : 262144 Invalid Blocks : 0
Heartbeat CPU 4 instructions: 280000001 cycles: 394495627 heartbeat IPC: 0.291054 cumulative IPC: 0.281969 (Simulation time: 52 hr 46 min 46 sec) 
 Total Blocks : 262144 Invalid Blocks : 0
Heartbeat CPU 2 instructions: 280000001 cycles: 394510482 heartbeat IPC: 0.291415 cumulative IPC: 0.281805 (Simulation time: 52 hr 46 min 55 sec) 
 Total Blocks : 262144 Invalid Blocks : 0
Heartbeat CPU 3 instructions: 280000001 cycles: 394539796 heartbeat IPC: 0.291406 cumulative IPC: 0.28181 (Simulation time: 52 hr 47 min 22 sec) 
 Total Blocks : 262144 Invalid Blocks : 0
Heartbeat CPU 5 instructions: 280000001 cycles: 394748635 heartbeat IPC: 0.290496 cumulative IPC: 0.281616 (Simulation time: 52 hr 50 min 23 sec) 
 Total Blocks : 262144 Invalid Blocks : 0
Heartbeat CPU 6 instructions: 280000001 cycles: 394836300 heartbeat IPC: 0.289985 cumulative IPC: 0.281542 (Simulation time: 52 hr 51 min 34 sec) 
 Total Blocks : 262144 Invalid Blocks : 0
Heartbeat CPU 7 instructions: 280000001 cycles: 394958488 heartbeat IPC: 0.288844 cumulative IPC: 0.281505 (Simulation time: 52 hr 53 min 21 sec) 
 Total Blocks : 262144 Invalid Blocks : 0
Heartbeat CPU 1 instructions: 280000001 cycles: 395069344 heartbeat IPC: 0.288108 cumulative IPC: 0.281288 (Simulation time: 52 hr 55 min 31 sec) 
 Total Blocks : 262144 Invalid Blocks : 0
Heartbeat CPU 2 instructions: 290000002 cycles: 437890846 heartbeat IPC: 0.230519 cumulative IPC: 0.275004 (Simulation time: 56 hr 44 min 54 sec) 
 Total Blocks : 262144 Invalid Blocks : 0
Heartbeat CPU 4 instructions: 290000002 cycles: 437976168 heartbeat IPC: 0.229988 cumulative IPC: 0.275061 (Simulation time: 56 hr 45 min 19 sec) 
 Total Blocks : 262144 Invalid Blocks : 0
Heartbeat CPU 0 instructions: 290000002 cycles: 438276039 heartbeat IPC: 0.228392 cumulative IPC: 0.274689 (Simulation time: 56 hr 46 min 37 sec) 
 Total Blocks : 262144 Invalid Blocks : 0
Heartbeat CPU 3 instructions: 290000002 cycles: 438382846 heartbeat IPC: 0.228086 cumulative IPC: 0.27462 (Simulation time: 56 hr 47 min 5 sec) 
 Total Blocks : 262144 Invalid Blocks : 0
Heartbeat CPU 5 instructions: 290000002 cycles: 438566989 heartbeat IPC: 0.228215 cumulative IPC: 0.274477 (Simulation time: 56 hr 47 min 58 sec) 
 Total Blocks : 262144 Invalid Blocks : 0
Heartbeat CPU 7 instructions: 290000002 cycles: 438627698 heartbeat IPC: 0.228994 cumulative IPC: 0.274511 (Simulation time: 56 hr 48 min 18 sec) 
 Total Blocks : 262144 Invalid Blocks : 0
Heartbeat CPU 6 instructions: 290000002 cycles: 438643418 heartbeat IPC: 0.228273 cumulative IPC: 0.274424 (Simulation time: 56 hr 48 min 20 sec) 
 Total Blocks : 262144 Invalid Blocks : 0
Heartbeat CPU 1 instructions: 290000002 cycles: 438747447 heartbeat IPC: 0.228948 cumulative IPC: 0.274317 (Simulation time: 56 hr 48 min 47 sec) 
 Total Blocks : 262144 Invalid Blocks : 0
Heartbeat CPU 0 instructions: 300000000 cycles: 474422557 heartbeat IPC: 0.276652 cumulative IPC: 0.274884 (Simulation time: 59 hr 23 min 49 sec) 
 Total Blocks : 262144 Invalid Blocks : 0
Heartbeat CPU 2 instructions: 300000000 cycles: 474423370 heartbeat IPC: 0.273729 cumulative IPC: 0.274875 (Simulation time: 59 hr 23 min 49 sec) 
 Total Blocks : 262144 Invalid Blocks : 0
Heartbeat CPU 4 instructions: 300000000 cycles: 474462003 heartbeat IPC: 0.274079 cumulative IPC: 0.274963 (Simulation time: 59 hr 23 min 50 sec) 
 Total Blocks : 262144 Invalid Blocks : 0
Heartbeat CPU 5 instructions: 300000000 cycles: 474702341 heartbeat IPC: 0.276737 cumulative IPC: 0.274702 (Simulation time: 59 hr 23 min 58 sec) 
 Total Blocks : 262144 Invalid Blocks : 0
Heartbeat CPU 3 instructions: 300000000 cycles: 474973440 heartbeat IPC: 0.273294 cumulative IPC: 0.274487 (Simulation time: 59 hr 24 min 8 sec) 
 Total Blocks : 262144 Invalid Blocks : 0
Heartbeat CPU 7 instructions: 300000001 cycles: 475066445 heartbeat IPC: 0.274433 cumulative IPC: 0.274503 (Simulation time: 59 hr 24 min 12 sec) 
 Total Blocks : 262144 Invalid Blocks : 0
Heartbeat CPU 6 instructions: 300000001 cycles: 475231101 heartbeat IPC: 0.273316 cumulative IPC: 0.274313 (Simulation time: 59 hr 24 min 18 sec) 
 Total Blocks : 262144 Invalid Blocks : 0
Heartbeat CPU 1 instructions: 300000000 cycles: 475351387 heartbeat IPC: 0.273195 cumulative IPC: 0.274205 (Simulation time: 59 hr 24 min 24 sec) 
 Total Blocks : 262144 Invalid Blocks : 0
Heartbeat CPU 2 instructions: 310000003 cycles: 510754216 heartbeat IPC: 0.275248 cumulative IPC: 0.274909 (Simulation time: 61 hr 43 min 12 sec) 
 Total Blocks : 262144 Invalid Blocks : 0
Heartbeat CPU 0 instructions: 310000003 cycles: 510800482 heartbeat IPC: 0.274892 cumulative IPC: 0.274884 (Simulation time: 61 hr 43 min 26 sec) 
 Total Blocks : 262144 Invalid Blocks : 0
Heartbeat CPU 4 instructions: 310000003 cycles: 510825901 heartbeat IPC: 0.274998 cumulative IPC: 0.274966 (Simulation time: 61 hr 43 min 35 sec) 
 Total Blocks : 262144 Invalid Blocks : 0
Heartbeat CPU 5 instructions: 310000003 cycles: 510990054 heartbeat IPC: 0.275575 cumulative IPC: 0.274781 (Simulation time: 61 hr 44 min 37 sec) 
 Total Blocks : 262144 Invalid Blocks : 0
Heartbeat CPU 7 instructions: 310000003 cycles: 511021531 heartbeat IPC: 0.278125 cumulative IPC: 0.274829 (Simulation time: 61 hr 44 min 48 sec) 
 Total Blocks : 262144 Invalid Blocks : 0
Heartbeat CPU 6 instructions: 310000003 cycles: 511023955 heartbeat IPC: 0.279385 cumulative IPC: 0.274767 (Simulation time: 61 hr 44 min 48 sec) 
 Total Blocks : 262144 Invalid Blocks : 0
Heartbeat CPU 3 instructions: 310000003 cycles: 511024312 heartbeat IPC: 0.277386 cumulative IPC: 0.274748 (Simulation time: 61 hr 44 min 48 sec) 
 Total Blocks : 262144 Invalid Blocks : 0
Heartbeat CPU 1 instructions: 310000003 cycles: 511129213 heartbeat IPC: 0.279503 cumulative IPC: 0.274678 (Simulation time: 61 hr 45 min 27 sec) 
 Total Blocks : 262144 Invalid Blocks : 0
Heartbeat CPU 2 instructions: 320000002 cycles: 554945016 heartbeat IPC: 0.226291 cumulative IPC: 0.270072 (Simulation time: 67 hr 20 min 56 sec) 
 Total Blocks : 262144 Invalid Blocks : 0
Heartbeat CPU 0 instructions: 320000002 cycles: 554965381 heartbeat IPC: 0.226424 cumulative IPC: 0.270066 (Simulation time: 67 hr 21 min 7 sec) 
 Total Blocks : 262144 Invalid Blocks : 0
Heartbeat CPU 4 instructions: 320000002 cycles: 555091820 heartbeat IPC: 0.225907 cumulative IPC: 0.270078 (Simulation time: 67 hr 22 min 39 sec) 
 Total Blocks : 262144 Invalid Blocks : 0
Heartbeat CPU 5 instructions: 320000002 cycles: 555204502 heartbeat IPC: 0.22617 cumulative IPC: 0.269945 (Simulation time: 67 hr 23 min 55 sec) 
 Total Blocks : 262144 Invalid Blocks : 0
Heartbeat CPU 3 instructions: 320000002 cycles: 555492020 heartbeat IPC: 0.224882 cumulative IPC: 0.269762 (Simulation time: 67 hr 26 min 55 sec) 
 Total Blocks : 262144 Invalid Blocks : 0
Heartbeat CPU 7 instructions: 320000002 cycles: 555525158 heartbeat IPC: 0.224701 cumulative IPC: 0.269813 (Simulation time: 67 hr 27 min 15 sec) 
 Total Blocks : 262144 Invalid Blocks : 0
Heartbeat CPU 6 instructions: 320000002 cycles: 555557888 heartbeat IPC: 0.224548 cumulative IPC: 0.269738 (Simulation time: 67 hr 27 min 38 sec) 
 Total Blocks : 262144 Invalid Blocks : 0
Heartbeat CPU 1 instructions: 320000002 cycles: 555764599 heartbeat IPC: 0.224037 cumulative IPC: 0.269599 (Simulation time: 67 hr 29 min 44 sec) 
 Total Blocks : 262144 Invalid Blocks : 0
Heartbeat CPU 2 instructions: 330000000 cycles: 582841136 heartbeat IPC: 0.358473 cumulative IPC: 0.275296 (Simulation time: 70 hr 0 min 9 sec) 
 Total Blocks : 262144 Invalid Blocks : 0
Heartbeat CPU 0 instructions: 330000000 cycles: 582845615 heartbeat IPC: 0.358677 cumulative IPC: 0.275299 (Simulation time: 70 hr 0 min 9 sec) 
 Total Blocks : 262144 Invalid Blocks : 0
Heartbeat CPU 4 instructions: 330000000 cycles: 583099441 heartbeat IPC: 0.357046 cumulative IPC: 0.275235 (Simulation time: 70 hr 1 min 5 sec) 
 Total Blocks : 262144 Invalid Blocks : 0
Heartbeat CPU 5 instructions: 330000000 cycles: 583134844 heartbeat IPC: 0.358034 cumulative IPC: 0.275153 (Simulation time: 70 hr 1 min 12 sec) 
 Total Blocks : 262144 Invalid Blocks : 0
Heartbeat CPU 3 instructions: 330000000 cycles: 583225640 heartbeat IPC: 0.360573 cumulative IPC: 0.275093 (Simulation time: 70 hr 1 min 30 sec) 
 Total Blocks : 262144 Invalid Blocks : 0
Heartbeat CPU 7 instructions: 330000000 cycles: 583246586 heartbeat IPC: 0.360732 cumulative IPC: 0.275147 (Simulation time: 70 hr 1 min 35 sec) 
 Total Blocks : 262144 Invalid Blocks : 0
Heartbeat CPU 6 instructions: 330000000 cycles: 583476437 heartbeat IPC: 0.358185 cumulative IPC: 0.274962 (Simulation time: 70 hr 2 min 28 sec) 
 Total Blocks : 262144 Invalid Blocks : 0
Heartbeat CPU 1 instructions: 330000000 cycles: 583547372 heartbeat IPC: 0.359935 cumulative IPC: 0.274907 (Simulation time: 70 hr 2 min 44 sec) 
 Total Blocks : 262144 Invalid Blocks : 0
Heartbeat CPU 0 instructions: 340000000 cycles: 630619516 heartbeat IPC: 0.209319 cumulative IPC: 0.269236 (Simulation time: 73 hr 17 min 26 sec) 
 Total Blocks : 262144 Invalid Blocks : 0
Heartbeat CPU 2 instructions: 340000000 cycles: 630737703 heartbeat IPC: 0.208783 cumulative IPC: 0.269169 (Simulation time: 73 hr 17 min 56 sec) 
 Total Blocks : 262144 Invalid Blocks : 0
Heartbeat CPU 5 instructions: 340000000 cycles: 631099021 heartbeat IPC: 0.208489 cumulative IPC: 0.269008 (Simulation time: 73 hr 19 min 20 sec) 
 Total Blocks : 262144 Invalid Blocks : 0
Heartbeat CPU 4 instructions: 340000000 cycles: 631137410 heartbeat IPC: 0.208169 cumulative IPC: 0.269044 (Simulation time: 73 hr 19 min 27 sec) 
 Total Blocks : 262144 Invalid Blocks : 0
Heartbeat CPU 7 instructions: 340000000 cycles: 631198071 heartbeat IPC: 0.208544 cumulative IPC: 0.26901 (Simulation time: 73 hr 19 min 39 sec) 
 Total Blocks : 262144 Invalid Blocks : 0
Heartbeat CPU 3 instructions: 340000000 cycles: 631276475 heartbeat IPC: 0.208113 cumulative IPC: 0.26891 (Simulation time: 73 hr 19 min 55 sec) 
 Total Blocks : 262144 Invalid Blocks : 0
Heartbeat CPU 6 instructions: 340000000 cycles: 631486835 heartbeat IPC: 0.208288 cumulative IPC: 0.268815 (Simulation time: 73 hr 20 min 51 sec) 
 Total Blocks : 262144 Invalid Blocks : 0
Heartbeat CPU 1 instructions: 340000000 cycles: 631549333 heartbeat IPC: 0.208325 cumulative IPC: 0.26877 (Simulation time: 73 hr 21 min 8 sec) 
 Total Blocks : 262144 Invalid Blocks : 0
Heartbeat CPU 0 instructions: 350000002 cycles: 670891773 heartbeat IPC: 0.24831 cumulative IPC: 0.267731 (Simulation time: 77 hr 9 min 7 sec) 
 Total Blocks : 262144 Invalid Blocks : 0
Heartbeat CPU 7 instructions: 350000002 cycles: 670898835 heartbeat IPC: 0.251884 cumulative IPC: 0.267796 (Simulation time: 77 hr 9 min 8 sec) 
 Total Blocks : 262144 Invalid Blocks : 0
Heartbeat CPU 2 instructions: 350000002 cycles: 671036115 heartbeat IPC: 0.248149 cumulative IPC: 0.267657 (Simulation time: 77 hr 9 min 51 sec) 
 Total Blocks : 262144 Invalid Blocks : 0
Heartbeat CPU 5 instructions: 350000002 cycles: 671142707 heartbeat IPC: 0.249727 cumulative IPC: 0.26763 (Simulation time: 77 hr 10 min 17 sec) 
 Total Blocks : 262144 Invalid Blocks : 0
Heartbeat CPU 4 instructions: 350000002 cycles: 671166002 heartbeat IPC: 0.249821 cumulative IPC: 0.267671 (Simulation time: 77 hr 10 min 22 sec) 
 Total Blocks : 262144 Invalid Blocks : 0
Heartbeat CPU 3 instructions: 350000002 cycles: 671325313 heartbeat IPC: 0.249695 cumulative IPC: 0.267537 (Simulation time: 77 hr 11 min 0 sec) 
 Total Blocks : 262144 Invalid Blocks : 0
Heartbeat CPU 6 instructions: 350000002 cycles: 671339304 heartbeat IPC: 0.250926 cumulative IPC: 0.267543 (Simulation time: 77 hr 11 min 4 sec) 
 Total Blocks : 262144 Invalid Blocks : 0
Heartbeat CPU 1 instructions: 350000002 cycles: 671425160 heartbeat IPC: 0.250779 cumulative IPC: 0.26749 (Simulation time: 77 hr 11 min 25 sec) 
 Total Blocks : 262144 Invalid Blocks : 0
Heartbeat CPU 7 instructions: 360000000 cycles: 710931305 heartbeat IPC: 0.249797 cumulative IPC: 0.266596 (Simulation time: 80 hr 15 min 8 sec) 
 Total Blocks : 262144 Invalid Blocks : 0
Heartbeat CPU 0 instructions: 360000000 cycles: 710973165 heartbeat IPC: 0.249492 cumulative IPC: 0.266513 (Simulation time: 80 hr 15 min 18 sec) 
 Total Blocks : 262144 Invalid Blocks : 0
Heartbeat CPU 5 instructions: 360000000 cycles: 711413135 heartbeat IPC: 0.248321 cumulative IPC: 0.266336 (Simulation time: 80 hr 17 min 12 sec) 
 Total Blocks : 262144 Invalid Blocks : 0
Heartbeat CPU 2 instructions: 360000000 cycles: 711438835 heartbeat IPC: 0.247508 cumulative IPC: 0.266302 (Simulation time: 80 hr 17 min 16 sec) 
 Total Blocks : 262144 Invalid Blocks : 0
Heartbeat CPU 4 instructions: 360000000 cycles: 711762248 heartbeat IPC: 0.246328 cumulative IPC: 0.266229 (Simulation time: 80 hr 18 min 41 sec) 
 Total Blocks : 262144 Invalid Blocks : 0
Heartbeat CPU 6 instructions: 360000000 cycles: 711945777 heartbeat IPC: 0.246266 cumulative IPC: 0.266106 (Simulation time: 80 hr 19 min 24 sec) 
 Total Blocks : 262144 Invalid Blocks : 0
Heartbeat CPU 3 instructions: 360000000 cycles: 711987844 heartbeat IPC: 0.245927 cumulative IPC: 0.266075 (Simulation time: 80 hr 19 min 32 sec) 
 Total Blocks : 262144 Invalid Blocks : 0
Heartbeat CPU 1 instructions: 360000000 cycles: 711995128 heartbeat IPC: 0.246488 cumulative IPC: 0.266073 (Simulation time: 80 hr 19 min 37 sec) 
 Total Blocks : 262144 Invalid Blocks : 0
Heartbeat CPU 7 instructions: 370000000 cycles: 742463567 heartbeat IPC: 0.317136 cumulative IPC: 0.269119 (Simulation time: 84 hr 15 min 50 sec) 
 Total Blocks : 262144 Invalid Blocks : 0
Heartbeat CPU 0 instructions: 370000000 cycles: 742548838 heartbeat IPC: 0.3167 cumulative IPC: 0.269022 (Simulation time: 84 hr 15 min 52 sec) 
 Total Blocks : 262144 Invalid Blocks : 0
Heartbeat CPU 5 instructions: 370000000 cycles: 743266805 heartbeat IPC: 0.313936 cumulative IPC: 0.268733 (Simulation time: 84 hr 16 min 18 sec) 
 Total Blocks : 262144 Invalid Blocks : 0
Heartbeat CPU 2 instructions: 370000000 cycles: 743483454 heartbeat IPC: 0.312065 cumulative IPC: 0.26862 (Simulation time: 84 hr 16 min 26 sec) 
 Total Blocks : 262144 Invalid Blocks : 0
Heartbeat CPU 6 instructions: 370000000 cycles: 743668669 heartbeat IPC: 0.31523 cumulative IPC: 0.268568 (Simulation time: 84 hr 16 min 33 sec) 
 Total Blocks : 262144 Invalid Blocks : 0
Heartbeat CPU 4 instructions: 370000000 cycles: 743672166 heartbeat IPC: 0.313382 cumulative IPC: 0.268607 (Simulation time: 84 hr 16 min 33 sec) 
 Total Blocks : 262144 Invalid Blocks : 0
Heartbeat CPU 1 instructions: 370000000 cycles: 743785008 heartbeat IPC: 0.314566 cumulative IPC: 0.268508 (Simulation time: 84 hr 16 min 37 sec) 
 Total Blocks : 262144 Invalid Blocks : 0
Heartbeat CPU 3 instructions: 370000000 cycles: 743849239 heartbeat IPC: 0.313859 cumulative IPC: 0.26848 (Simulation time: 84 hr 16 min 39 sec) 
 Total Blocks : 262144 Invalid Blocks : 0
Heartbeat CPU 0 instructions: 380000003 cycles: 782180102 heartbeat IPC: 0.252326 cumulative IPC: 0.268036 (Simulation time: 86 hr 32 min 6 sec) 
 Total Blocks : 262144 Invalid Blocks : 0
Heartbeat CPU 7 instructions: 380000003 cycles: 782186903 heartbeat IPC: 0.251741 cumulative IPC: 0.268091 (Simulation time: 86 hr 32 min 8 sec) 
 Total Blocks : 262144 Invalid Blocks : 0
Heartbeat CPU 4 instructions: 380000003 cycles: 782737582 heartbeat IPC: 0.255981 cumulative IPC: 0.267873 (Simulation time: 86 hr 34 min 22 sec) 
 Total Blocks : 262144 Invalid Blocks : 0
Heartbeat CPU 5 instructions: 380000003 cycles: 782744671 heartbeat IPC: 0.253307 cumulative IPC: 0.267827 (Simulation time: 86 hr 34 min 22 sec) 
 Total Blocks : 262144 Invalid Blocks : 0
Heartbeat CPU 6 instructions: 380000003 cycles: 782861497 heartbeat IPC: 0.255149 cumulative IPC: 0.267786 (Simulation time: 86 hr 34 min 52 sec) 
 Total Blocks : 262144 Invalid Blocks : 0
Heartbeat CPU 2 instructions: 380000003 cycles: 782885399 heartbeat IPC: 0.253795 cumulative IPC: 0.267751 (Simulation time: 86 hr 34 min 59 sec) 
 Total Blocks : 262144 Invalid Blocks : 0
Heartbeat CPU 3 instructions: 380000003 cycles: 783050379 heartbeat IPC: 0.255095 cumulative IPC: 0.2677 (Simulation time: 86 hr 35 min 40 sec) 
 Total Blocks : 262144 Invalid Blocks : 0
Heartbeat CPU 1 instructions: 380000003 cycles: 783154316 heartbeat IPC: 0.254005 cumulative IPC: 0.267659 (Simulation time: 86 hr 36 min 4 sec) 
 Total Blocks : 262144 Invalid Blocks : 0
Heartbeat CPU 0 instructions: 390000001 cycles: 813015116 heartbeat IPC: 0.324307 cumulative IPC: 0.270507 (Simulation time: 91 hr 2 min 36 sec) 
 Total Blocks : 262144 Invalid Blocks : 0
Heartbeat CPU 7 instructions: 390000001 cycles: 813046806 heartbeat IPC: 0.324045 cumulative IPC: 0.270549 (Simulation time: 91 hr 3 min 2 sec) 
 Total Blocks : 262144 Invalid Blocks : 0
Heartbeat CPU 4 instructions: 390000001 cycles: 813665407 heartbeat IPC: 0.323333 cumulative IPC: 0.270313 (Simulation time: 91 hr 10 min 14 sec) 
 Total Blocks : 262144 Invalid Blocks : 0
Heartbeat CPU 5 instructions: 390000001 cycles: 813679080 heartbeat IPC: 0.323265 cumulative IPC: 0.270266 (Simulation time: 91 hr 10 min 20 sec) 
 Total Blocks : 262144 Invalid Blocks : 0
Heartbeat CPU 2 instructions: 390000001 cycles: 813807674 heartbeat IPC: 0.323391 cumulative IPC: 0.270198 (Simulation time: 91 hr 11 min 45 sec) 
 Total Blocks : 262144 Invalid Blocks : 0
Heartbeat CPU 6 instructions: 390000001 cycles: 813844077 heartbeat IPC: 0.322762 cumulative IPC: 0.270208 (Simulation time: 91 hr 12 min 12 sec) 
 Total Blocks : 262144 Invalid Blocks : 0
Heartbeat CPU 3 instructions: 390000001 cycles: 814072359 heartbeat IPC: 0.322352 cumulative IPC: 0.27011 (Simulation time: 91 hr 14 min 28 sec) 
 Total Blocks : 262144 Invalid Blocks : 0
Heartbeat CPU 1 instructions: 390000001 cycles: 814232088 heartbeat IPC: 0.321773 cumulative IPC: 0.27005 (Simulation time: 91 hr 15 min 44 sec) 
 Total Blocks : 262144 Invalid Blocks : 0
Heartbeat CPU 0 instructions: 400000000 cycles: 850710494 heartbeat IPC: 0.265284 cumulative IPC: 0.270241 (Simulation time: 95 hr 2 min 46 sec) 
 Total Blocks : 262144 Invalid Blocks : 0
Heartbeat CPU 7 instructions: 400000000 cycles: 850824136 heartbeat IPC: 0.264709 cumulative IPC: 0.270251 (Simulation time: 95 hr 3 min 11 sec) 
 Total Blocks : 262144 Invalid Blocks : 0
Finished CPU 7 instructions: 200000000 cycles: 740056044 cumulative IPC: 0.27025 (Simulation time: 95 hr 3 min 13 sec) 
Finished CPU 0 instructions: 200000000 cycles: 740422428 cumulative IPC: 0.270116 (Simulation time: 95 hr 4 min 31 sec) 
Heartbeat CPU 4 instructions: 400000000 cycles: 851219750 heartbeat IPC: 0.266281 cumulative IPC: 0.270108 (Simulation time: 95 hr 4 min 34 sec) 
 Total Blocks : 262144 Invalid Blocks : 0
Finished CPU 4 instructions: 200000000 cycles: 740443558 cumulative IPC: 0.270108 (Simulation time: 95 hr 4 min 34 sec) 
Heartbeat CPU 5 instructions: 400000000 cycles: 851269045 heartbeat IPC: 0.266028 cumulative IPC: 0.270051 (Simulation time: 95 hr 4 min 43 sec) 
 Total Blocks : 262144 Invalid Blocks : 0
Finished CPU 5 instructions: 200000000 cycles: 740845041 cumulative IPC: 0.269962 (Simulation time: 95 hr 5 min 36 sec) 
Heartbeat CPU 6 instructions: 400000000 cycles: 851911620 heartbeat IPC: 0.262691 cumulative IPC: 0.269822 (Simulation time: 95 hr 6 min 25 sec) 
 Total Blocks : 262144 Invalid Blocks : 0
Heartbeat CPU 1 instructions: 400000000 cycles: 851935555 heartbeat IPC: 0.265228 cumulative IPC: 0.269805 (Simulation time: 95 hr 6 min 28 sec) 
 Total Blocks : 262144 Invalid Blocks : 0
Heartbeat CPU 2 instructions: 400000000 cycles: 851978986 heartbeat IPC: 0.261977 cumulative IPC: 0.269775 (Simulation time: 95 hr 6 min 34 sec) 
 Total Blocks : 262144 Invalid Blocks : 0
Heartbeat CPU 3 instructions: 400000000 cycles: 852182173 heartbeat IPC: 0.2624 cumulative IPC: 0.269714 (Simulation time: 95 hr 6 min 49 sec) 
 Total Blocks : 262144 Invalid Blocks : 0
Finished CPU 6 instructions: 200000000 cycles: 741433966 cumulative IPC: 0.269748 (Simulation time: 95 hr 6 min 55 sec) 
Finished CPU 1 instructions: 200000003 cycles: 741530655 cumulative IPC: 0.269712 (Simulation time: 95 hr 7 min 2 sec) 
Finished CPU 2 instructions: 200000001 cycles: 741712051 cumulative IPC: 0.269646 (Simulation time: 95 hr 7 min 11 sec) 
Finished CPU 3 instructions: 200000001 cycles: 741809164 cumulative IPC: 0.269611 (Simulation time: 95 hr 7 min 14 sec) 

CPU 0 Branch Prediction Accuracy: 98.1363% MPKI: 1.84958 Average ROB Occupancy at Mispredict: 220.332

CPU 1 Branch Prediction Accuracy: 98.1353% MPKI: 1.85003 Average ROB Occupancy at Mispredict: 220.329

CPU 2 Branch Prediction Accuracy: 98.1352% MPKI: 1.84996 Average ROB Occupancy at Mispredict: 220.303

CPU 3 Branch Prediction Accuracy: 98.1352% MPKI: 1.84998 Average ROB Occupancy at Mispredict: 220.327

CPU 4 Branch Prediction Accuracy: 98.1362% MPKI: 1.85007 Average ROB Occupancy at Mispredict: 220.341

CPU 5 Branch Prediction Accuracy: 98.1359% MPKI: 1.84989 Average ROB Occupancy at Mispredict: 220.324

CPU 6 Branch Prediction Accuracy: 98.1354% MPKI: 1.85006 Average ROB Occupancy at Mispredict: 220.326

CPU 7 Branch Prediction Accuracy: 98.1366% MPKI: 1.84988 Average ROB Occupancy at Mispredict: 220.336

ChampSim completed all CPUs

Total Simulation Statistics (not including warmup)

CPU 0 cumulative IPC: 0.26974 instructions: 200095254 cycles: 741809164
ITLB TOTAL     ACCESS: 45261820  HIT: 45261820  MISS:     0  HIT %:   100  MISS %:     0  AVERAGE MISS PENALTY: 0
ITLB LOAD      ACCESS: 45261820  HIT: 45261820  MISS:     0  HIT %:   100  MISS %:     0  AVERAGE MISS PENALTY: 0
ITLB RFO       ACCESS:     0  HIT:     0  MISS:     0  HIT %:     0  MISS %:     0  AVERAGE MISS PENALTY: 0
ITLB PREFETCH  ACCESS:     0  HIT:     0  MISS:     0  HIT %:     0  MISS %:     0  AVERAGE MISS PENALTY: 0
ITLB WRITEBACK ACCESS:     0  HIT:     0  MISS:     0  HIT %:     0  MISS %:     0  AVERAGE MISS PENALTY: 0

DTLB TOTAL     ACCESS: 63294476  HIT: 62555041  MISS: 739435  HIT %: 98.8318  MISS %: 1.16825  AVERAGE MISS PENALTY: 29.7533
DTLB LOAD      ACCESS: 41001202  HIT: 40283050  MISS: 718152  HIT %: 98.2485  MISS %: 1.75154  AVERAGE MISS PENALTY: 29.2591
DTLB RFO       ACCESS: 22293274  HIT: 22271991  MISS: 21283  HIT %: 99.9045  MISS %: 0.0954683  AVERAGE MISS PENALTY: 46.4273
DTLB PREFETCH  ACCESS:     0  HIT:     0  MISS:     0  HIT %:     0  MISS %:     0  AVERAGE MISS PENALTY: 0
DTLB WRITEBACK ACCESS:     0  HIT:     0  MISS:     0  HIT %:     0  MISS %:     0  AVERAGE MISS PENALTY: 0

STLB TOTAL     ACCESS: 739435  HIT: 587141  MISS: 152294  HIT %: 79.404  MISS %: 20.596  AVERAGE MISS PENALTY: 100
STLB LOAD      ACCESS: 718152  HIT: 573436  MISS: 144716  HIT %: 79.8488  MISS %: 20.1512  AVERAGE MISS PENALTY: 100
STLB RFO       ACCESS: 21283  HIT: 13705  MISS:  7578  HIT %: 64.3941  MISS %: 35.6059  AVERAGE MISS PENALTY: 100
STLB PREFETCH  ACCESS:     0  HIT:     0  MISS:     0  HIT %:     0  MISS %:     0  AVERAGE MISS PENALTY: 0
STLB WRITEBACK ACCESS:     0  HIT:     0  MISS:     0  HIT %:     0  MISS %:     0  AVERAGE MISS PENALTY: 0

L1D TOTAL     ACCESS: 118601294  HIT: 111807340  MISS: 6793954  HIT %: 94.2716  MISS %: 5.7284  AVERAGE MISS PENALTY: 7.25958e+07
L1D LOAD      ACCESS: 40750525  HIT: 37888076  MISS: 2862449  HIT %: 92.9757  MISS %: 7.02432  AVERAGE MISS PENALTY: 1.7011e+08
L1D RFO       ACCESS: 55524234  HIT: 55082789  MISS: 441445  HIT %: 99.205  MISS %: 0.795049  AVERAGE MISS PENALTY: 1.42243e+07
L1D PREFETCH  ACCESS: 22326535  HIT: 18836475  MISS: 3490060  HIT %: 84.3681  MISS %: 15.6319  AVERAGE MISS PENALTY: 337.577
L1D WRITEBACK ACCESS:     0  HIT:     0  MISS:     0  HIT %:     0  MISS %:     0  AVERAGE MISS PENALTY: 0

L1I TOTAL     ACCESS: 57007557  HIT: 57007557  MISS:     0  HIT %:   100  MISS %:     0  AVERAGE MISS PENALTY: 0
L1I LOAD      ACCESS: 57007557  HIT: 57007557  MISS:     0  HIT %:   100  MISS %:     0  AVERAGE MISS PENALTY: 0
L1I RFO       ACCESS:     0  HIT:     0  MISS:     0  HIT %:     0  MISS %:     0  AVERAGE MISS PENALTY: 0
L1I PREFETCH  ACCESS:     0  HIT:     0  MISS:     0  HIT %:     0  MISS %:     0  AVERAGE MISS PENALTY: 0
L1I WRITEBACK ACCESS:     0  HIT:     0  MISS:     0  HIT %:     0  MISS %:     0  AVERAGE MISS PENALTY: 0

L2C TOTAL     ACCESS: 9178142  HIT: 2905607  MISS: 6272535  HIT %: 31.6579  MISS %: 68.3421  AVERAGE MISS PENALTY: 6.98052e+07
L2C LOAD      ACCESS: 2827238  HIT: 217760  MISS: 2609478  HIT %: 7.70222  MISS %: 92.2978  AVERAGE MISS PENALTY: 1.67715e+08
L2C RFO       ACCESS: 428332  HIT:  4734  MISS: 423598  HIT %: 1.10522  MISS %: 98.8948  AVERAGE MISS PENALTY: 487516
L2C PREFETCH  ACCESS: 4616946  HIT: 1386112  MISS: 3230834  HIT %: 30.0223  MISS %: 69.9777  AVERAGE MISS PENALTY: 461.766
L2C WRITEBACK ACCESS: 1305626  HIT: 1297001  MISS:  8625  HIT %: 99.3394  MISS %: 0.660603  AVERAGE MISS PENALTY: 0


LLC0 TOTAL     ACCESS: 924180  HIT: 131845  MISS: 792335  HIT %: 14.2662  MISS %: 85.7338  AVERAGE MISS PENALTY: 470.342
LLC0 LOAD      ACCESS: 249298  HIT:  5819  MISS: 243479  HIT %: 2.33415  MISS %: 97.6658  AVERAGE MISS PENALTY: 532.198
LLC0 RFO       ACCESS: 53888  HIT:    19  MISS: 53869  HIT %: 0.0352583  MISS %: 99.9647  AVERAGE MISS PENALTY: 407.578
LLC0 PREFETCH  ACCESS: 468307  HIT: 15802  MISS: 452505  HIT %: 3.37428  MISS %: 96.6257  AVERAGE MISS PENALTY: 488.687
LLC0 WRITEBACK ACCESS: 152687  HIT: 110205  MISS: 42482  HIT %: 72.1771  MISS %: 27.8229  AVERAGE MISS PENALTY: 0

LLC1 TOTAL     ACCESS: 938714  HIT: 130901  MISS: 807813  HIT %: 13.9447  MISS %: 86.0553  AVERAGE MISS PENALTY: 475.688
LLC1 LOAD      ACCESS: 250490  HIT:  5919  MISS: 244571  HIT %: 2.36297  MISS %: 97.637  AVERAGE MISS PENALTY: 545.012
LLC1 RFO       ACCESS: 52938  HIT:    67  MISS: 52871  HIT %: 0.126563  MISS %: 99.8734  AVERAGE MISS PENALTY: 415.702
LLC1 PREFETCH  ACCESS: 483552  HIT: 15695  MISS: 467857  HIT %: 3.24577  MISS %: 96.7542  AVERAGE MISS PENALTY: 489.454
LLC1 WRITEBACK ACCESS: 151734  HIT: 109220  MISS: 42514  HIT %: 71.9812  MISS %: 28.0188  AVERAGE MISS PENALTY: 0

LLC2 TOTAL     ACCESS: 944270  HIT: 130819  MISS: 813451  HIT %: 13.854  MISS %: 86.146  AVERAGE MISS PENALTY: 466.387
LLC2 LOAD      ACCESS: 240183  HIT:  5505  MISS: 234678  HIT %: 2.292  MISS %: 97.708  AVERAGE MISS PENALTY: 538.973
LLC2 RFO       ACCESS: 52725  HIT:    16  MISS: 52709  HIT %: 0.0303461  MISS %: 99.9697  AVERAGE MISS PENALTY: 414.834
LLC2 PREFETCH  ACCESS: 499628  HIT: 16215  MISS: 483413  HIT %: 3.24541  MISS %: 96.7546  AVERAGE MISS PENALTY: 477.919
LLC2 WRITEBACK ACCESS: 151734  HIT: 109083  MISS: 42651  HIT %: 71.8909  MISS %: 28.1091  AVERAGE MISS PENALTY: 0

LLC3 TOTAL     ACCESS: 937290  HIT: 131138  MISS: 806152  HIT %: 13.9912  MISS %: 86.0088  AVERAGE MISS PENALTY: 471.51
LLC3 LOAD      ACCESS: 250944  HIT:  5635  MISS: 245309  HIT %: 2.24552  MISS %: 97.7545  AVERAGE MISS PENALTY: 532.091
LLC3 RFO       ACCESS: 52744  HIT:    17  MISS: 52727  HIT %: 0.0322312  MISS %: 99.9678  AVERAGE MISS PENALTY: 421.558
LLC3 PREFETCH  ACCESS: 482351  HIT: 16608  MISS: 465743  HIT %: 3.44314  MISS %: 96.5569  AVERAGE MISS PENALTY: 488.155
LLC3 WRITEBACK ACCESS: 151251  HIT: 108878  MISS: 42373  HIT %: 71.985  MISS %: 28.015  AVERAGE MISS PENALTY: 0

LLC4 TOTAL     ACCESS: 933983  HIT: 131632  MISS: 802351  HIT %: 14.0936  MISS %: 85.9064  AVERAGE MISS PENALTY: 477.842
LLC4 LOAD      ACCESS: 250589  HIT:  5739  MISS: 244850  HIT %: 2.2902  MISS %: 97.7098  AVERAGE MISS PENALTY: 552.562
LLC4 RFO       ACCESS: 52735  HIT:    23  MISS: 52712  HIT %: 0.0436143  MISS %: 99.9564  AVERAGE MISS PENALTY: 412.992
LLC4 PREFETCH  ACCESS: 478777  HIT: 16356  MISS: 462421  HIT %: 3.4162  MISS %: 96.5838  AVERAGE MISS PENALTY: 489.451
LLC4 WRITEBACK ACCESS: 151882  HIT: 109514  MISS: 42368  HIT %: 72.1047  MISS %: 27.8953  AVERAGE MISS PENALTY: 0

LLC5 TOTAL     ACCESS: 934042  HIT: 131230  MISS: 802812  HIT %: 14.0497  MISS %: 85.9503  AVERAGE MISS PENALTY: 462.433
LLC5 LOAD      ACCESS: 263767  HIT:  5864  MISS: 257903  HIT %: 2.22317  MISS %: 97.7768  AVERAGE MISS PENALTY: 523.778
LLC5 RFO       ACCESS: 52734  HIT:    13  MISS: 52721  HIT %: 0.024652  MISS %: 99.9753  AVERAGE MISS PENALTY: 409.646
LLC5 PREFETCH  ACCESS: 466750  HIT: 16144  MISS: 450606  HIT %: 3.45881  MISS %: 96.5412  AVERAGE MISS PENALTY: 476.173
LLC5 WRITEBACK ACCESS: 150791  HIT: 109209  MISS: 41582  HIT %: 72.4241  MISS %: 27.5759  AVERAGE MISS PENALTY: 0

LLC6 TOTAL     ACCESS: 934867  HIT: 131389  MISS: 803478  HIT %: 14.0543  MISS %: 85.9457  AVERAGE MISS PENALTY: 471.816
LLC6 LOAD      ACCESS: 264216  HIT:  6057  MISS: 258159  HIT %: 2.29244  MISS %: 97.7076  AVERAGE MISS PENALTY: 542.728
LLC6 RFO       ACCESS: 52692  HIT:    22  MISS: 52670  HIT %: 0.0417521  MISS %: 99.9582  AVERAGE MISS PENALTY: 416.791
LLC6 PREFETCH  ACCESS: 466421  HIT: 16010  MISS: 450411  HIT %: 3.43252  MISS %: 96.5675  AVERAGE MISS PENALTY: 481.852
LLC6 WRITEBACK ACCESS: 151538  HIT: 109300  MISS: 42238  HIT %: 72.1271  MISS %: 27.8729  AVERAGE MISS PENALTY: 0

LLC7 TOTAL     ACCESS: 929892  HIT: 131173  MISS: 798719  HIT %: 14.1063  MISS %: 85.8937  AVERAGE MISS PENALTY: 460.266
LLC7 LOAD      ACCESS: 281642  HIT:  6569  MISS: 275073  HIT %: 2.33239  MISS %: 97.6676  AVERAGE MISS PENALTY: 517.436
LLC7 RFO       ACCESS: 52718  HIT:    26  MISS: 52692  HIT %: 0.049319  MISS %: 99.9507  AVERAGE MISS PENALTY: 408.616
LLC7 PREFETCH  ACCESS: 443819  HIT: 14957  MISS: 428862  HIT %: 3.37007  MISS %: 96.6299  AVERAGE MISS PENALTY: 475.117
LLC7 WRITEBACK ACCESS: 151713  HIT: 109621  MISS: 42092  HIT %: 72.2555  MISS %: 27.7445  AVERAGE MISS PENALTY: 0

Total Rob stall cycles : 	709940336
Total Load Rob Stall cycles : 	405688122
Average Rob Stall cycles : 	 11
Average Load Rob Stall cycles : 	 39

CPU 1 cumulative IPC: 0.269639 instructions: 200020890 cycles: 741809164
ITLB TOTAL     ACCESS: 45242994  HIT: 45242994  MISS:     0  HIT %:   100  MISS %:     0  AVERAGE MISS PENALTY: 0
ITLB LOAD      ACCESS: 45242994  HIT: 45242994  MISS:     0  HIT %:   100  MISS %:     0  AVERAGE MISS PENALTY: 0
ITLB RFO       ACCESS:     0  HIT:     0  MISS:     0  HIT %:     0  MISS %:     0  AVERAGE MISS PENALTY: 0
ITLB PREFETCH  ACCESS:     0  HIT:     0  MISS:     0  HIT %:     0  MISS %:     0  AVERAGE MISS PENALTY: 0
ITLB WRITEBACK ACCESS:     0  HIT:     0  MISS:     0  HIT %:     0  MISS %:     0  AVERAGE MISS PENALTY: 0

DTLB TOTAL     ACCESS: 63267153  HIT: 62528018  MISS: 739135  HIT %: 98.8317  MISS %: 1.16828  AVERAGE MISS PENALTY: 29.7187
DTLB LOAD      ACCESS: 40977836  HIT: 40259971  MISS: 717865  HIT %: 98.2482  MISS %: 1.75184  AVERAGE MISS PENALTY: 29.2233
DTLB RFO       ACCESS: 22289317  HIT: 22268047  MISS: 21270  HIT %: 99.9046  MISS %: 0.0954269  AVERAGE MISS PENALTY: 46.4406
DTLB PREFETCH  ACCESS:     0  HIT:     0  MISS:     0  HIT %:     0  MISS %:     0  AVERAGE MISS PENALTY: 0
DTLB WRITEBACK ACCESS:     0  HIT:     0  MISS:     0  HIT %:     0  MISS %:     0  AVERAGE MISS PENALTY: 0

STLB TOTAL     ACCESS: 739135  HIT: 587139  MISS: 151996  HIT %: 79.436  MISS %: 20.564  AVERAGE MISS PENALTY: 100
STLB LOAD      ACCESS: 717865  HIT: 573446  MISS: 144419  HIT %: 79.8822  MISS %: 20.1178  AVERAGE MISS PENALTY: 100
STLB RFO       ACCESS: 21270  HIT: 13693  MISS:  7577  HIT %: 64.3771  MISS %: 35.6229  AVERAGE MISS PENALTY: 100
STLB PREFETCH  ACCESS:     0  HIT:     0  MISS:     0  HIT %:     0  MISS %:     0  AVERAGE MISS PENALTY: 0
STLB WRITEBACK ACCESS:     0  HIT:     0  MISS:     0  HIT %:     0  MISS %:     0  AVERAGE MISS PENALTY: 0

L1D TOTAL     ACCESS: 118585623  HIT: 111787537  MISS: 6798086  HIT %: 94.2674  MISS %: 5.73264  AVERAGE MISS PENALTY: 7.25964e+07
L1D LOAD      ACCESS: 40724796  HIT: 37869439  MISS: 2855357  HIT %: 92.9887  MISS %: 7.01135  AVERAGE MISS PENALTY: 1.70633e+08
L1D RFO       ACCESS: 55521549  HIT: 55080176  MISS: 441373  HIT %: 99.205  MISS %: 0.794958  AVERAGE MISS PENALTY: 1.42644e+07
L1D PREFETCH  ACCESS: 22339278  HIT: 18837922  MISS: 3501356  HIT %: 84.3265  MISS %: 15.6735  AVERAGE MISS PENALTY: 341.54
L1D WRITEBACK ACCESS:     0  HIT:     0  MISS:     0  HIT %:     0  MISS %:     0  AVERAGE MISS PENALTY: 0

L1I TOTAL     ACCESS: 56981099  HIT: 56981099  MISS:     0  HIT %:   100  MISS %:     0  AVERAGE MISS PENALTY: 0
L1I LOAD      ACCESS: 56981099  HIT: 56981099  MISS:     0  HIT %:   100  MISS %:     0  AVERAGE MISS PENALTY: 0
L1I RFO       ACCESS:     0  HIT:     0  MISS:     0  HIT %:     0  MISS %:     0  AVERAGE MISS PENALTY: 0
L1I PREFETCH  ACCESS:     0  HIT:     0  MISS:     0  HIT %:     0  MISS %:     0  AVERAGE MISS PENALTY: 0
L1I WRITEBACK ACCESS:     0  HIT:     0  MISS:     0  HIT %:     0  MISS %:     0  AVERAGE MISS PENALTY: 0

L2C TOTAL     ACCESS: 9200150  HIT: 2923240  MISS: 6276910  HIT %: 31.7738  MISS %: 68.2262  AVERAGE MISS PENALTY: 6.98797e+07
L2C LOAD      ACCESS: 2820265  HIT: 217692  MISS: 2602573  HIT %: 7.71885  MISS %: 92.2812  AVERAGE MISS PENALTY: 1.68457e+08
L2C RFO       ACCESS: 428207  HIT:  4649  MISS: 423558  HIT %: 1.08569  MISS %: 98.9143  AVERAGE MISS PENALTY: 483306
L2C PREFETCH  ACCESS: 4645990  HIT: 1403228  MISS: 3242762  HIT %: 30.203  MISS %: 69.797  AVERAGE MISS PENALTY: 469.176
L2C WRITEBACK ACCESS: 1305688  HIT: 1297671  MISS:  8017  HIT %: 99.386  MISS %: 0.614006  AVERAGE MISS PENALTY: 0


LLC0 TOTAL     ACCESS: 924263  HIT: 130661  MISS: 793602  HIT %: 14.1368  MISS %: 85.8632  AVERAGE MISS PENALTY: 469.986
LLC0 LOAD      ACCESS: 247564  HIT:  5575  MISS: 241989  HIT %: 2.25194  MISS %: 97.7481  AVERAGE MISS PENALTY: 519.616
LLC0 RFO       ACCESS: 53878  HIT:    20  MISS: 53858  HIT %: 0.0371209  MISS %: 99.9629  AVERAGE MISS PENALTY: 425.641
LLC0 PREFETCH  ACCESS: 470326  HIT: 15162  MISS: 455164  HIT %: 3.22372  MISS %: 96.7763  AVERAGE MISS PENALTY: 492.825
LLC0 WRITEBACK ACCESS: 152495  HIT: 109904  MISS: 42591  HIT %: 72.0706  MISS %: 27.9294  AVERAGE MISS PENALTY: 0

LLC1 TOTAL     ACCESS: 939047  HIT: 129067  MISS: 809980  HIT %: 13.7445  MISS %: 86.2555  AVERAGE MISS PENALTY: 476.725
LLC1 LOAD      ACCESS: 249105  HIT:  5523  MISS: 243582  HIT %: 2.21714  MISS %: 97.7829  AVERAGE MISS PENALTY: 534.53
LLC1 RFO       ACCESS: 52944  HIT:    79  MISS: 52865  HIT %: 0.149214  MISS %: 99.8508  AVERAGE MISS PENALTY: 434.483
LLC1 PREFETCH  ACCESS: 485427  HIT: 14805  MISS: 470622  HIT %: 3.04989  MISS %: 96.9501  AVERAGE MISS PENALTY: 495.02
LLC1 WRITEBACK ACCESS: 151571  HIT: 108660  MISS: 42911  HIT %: 71.6892  MISS %: 28.3108  AVERAGE MISS PENALTY: 0

LLC2 TOTAL     ACCESS: 945187  HIT: 130158  MISS: 815029  HIT %: 13.7706  MISS %: 86.2294  AVERAGE MISS PENALTY: 466.974
LLC2 LOAD      ACCESS: 239154  HIT:  5283  MISS: 233871  HIT %: 2.20904  MISS %: 97.791  AVERAGE MISS PENALTY: 526.059
LLC2 RFO       ACCESS: 52720  HIT:    18  MISS: 52702  HIT %: 0.0341426  MISS %: 99.9659  AVERAGE MISS PENALTY: 431.564
LLC2 PREFETCH  ACCESS: 501659  HIT: 15740  MISS: 485919  HIT %: 3.13759  MISS %: 96.8624  AVERAGE MISS PENALTY: 483.255
LLC2 WRITEBACK ACCESS: 151654  HIT: 109117  MISS: 42537  HIT %: 71.9513  MISS %: 28.0487  AVERAGE MISS PENALTY: 0

LLC3 TOTAL     ACCESS: 937664  HIT: 129731  MISS: 807933  HIT %: 13.8356  MISS %: 86.1644  AVERAGE MISS PENALTY: 471.887
LLC3 LOAD      ACCESS: 249799  HIT:  5336  MISS: 244463  HIT %: 2.13612  MISS %: 97.8639  AVERAGE MISS PENALTY: 520.343
LLC3 RFO       ACCESS: 52725  HIT:    12  MISS: 52713  HIT %: 0.0227596  MISS %: 99.9772  AVERAGE MISS PENALTY: 435.862
LLC3 PREFETCH  ACCESS: 484004  HIT: 15906  MISS: 468098  HIT %: 3.28634  MISS %: 96.7137  AVERAGE MISS PENALTY: 493.643
[...]
LLC1 AVERAGE MISS LATENCY: 474.724 cycles
LLC2 TOTAL     ACCESS: 941635  HIT: 125125  MISS: 816510  HIT %: 13.2881  MISS %: 86.7119  AVERAGE MISS PENALTY: 465.168
LLC2 LOAD      ACCESS: 238632  HIT:  5047  MISS: 233585  HIT %: 2.11497  MISS %: 97.885  AVERAGE MISS PENALTY: 528.202
LLC2 RFO       ACCESS: 52711  HIT:     9  MISS: 52702  HIT %: 0.0170742  MISS %: 99.9829  AVERAGE MISS PENALTY: 427.016
LLC2 PREFETCH  ACCESS: 498991  HIT: 14008  MISS: 484983  HIT %: 2.80727  MISS %: 97.1927  AVERAGE MISS PENALTY: 482.347
LLC2 WRITEBACK ACCESS: 151301  HIT: 106061  MISS: 45240  HIT %: 70.0993  MISS %: 29.9007  AVERAGE MISS PENALTY: 0
LLC2 PREFETCH  REQUESTED:     0  ISSUED:     0  USEFUL: 16335  USELESS: 3865196
 USEFUL LOAD PREFETCHES:      16335 PREFETCH ISSUED TO LOWER LEVEL:    3883304  ACCURACY: 0.420647
 TIMELY PREFETCHES:      16335 LATE PREFETCHES: 0 DROPPED PREFETCHES: 0
LLC2 AVERAGE MISS LATENCY: 465.168 cycles
LLC3 TOTAL     ACCESS: 934288  HIT: 125095  MISS: 809193  HIT %: 13.3893  MISS %: 86.6107  AVERAGE MISS PENALTY: 470.901
LLC3 LOAD      ACCESS: 249415  HIT:  5381  MISS: 244034  HIT %: 2.15745  MISS %: 97.8426  AVERAGE MISS PENALTY: 523.596
LLC3 RFO       ACCESS: 52723  HIT:    13  MISS: 52710  HIT %: 0.0246572  MISS %: 99.9753  AVERAGE MISS PENALTY: 434.233
LLC3 PREFETCH  ACCESS: 481449  HIT: 13957  MISS: 467492  HIT %: 2.89896  MISS %: 97.101  AVERAGE MISS PENALTY: 492.814
LLC3 WRITEBACK ACCESS: 150701  HIT: 105744  MISS: 44957  HIT %: 70.1681  MISS %: 29.8319  AVERAGE MISS PENALTY: 0
LLC3 PREFETCH  REQUESTED:     0  ISSUED:     0  USEFUL: 16522  USELESS: 3725022
 USEFUL LOAD PREFETCHES:      16522 PREFETCH ISSUED TO LOWER LEVEL:    3738199  ACCURACY: 0.441978
 TIMELY PREFETCHES:      16522 LATE PREFETCHES: 0 DROPPED PREFETCHES: 0
LLC3 AVERAGE MISS LATENCY: 470.901 cycles
LLC4 TOTAL     ACCESS: 931103  HIT: 125652  MISS: 805451  HIT %: 13.495  MISS %: 86.505  AVERAGE MISS PENALTY: 476.642
LLC4 LOAD      ACCESS: 249064  HIT:  5388  MISS: 243676  HIT %: 2.1633  MISS %: 97.8367  AVERAGE MISS PENALTY: 542.996
LLC4 RFO       ACCESS: 52702  HIT:    16  MISS: 52686  HIT %: 0.0303594  MISS %: 99.9696  AVERAGE MISS PENALTY: 427.938
LLC4 PREFETCH  ACCESS: 477970  HIT: 13805  MISS: 464165  HIT %: 2.88826  MISS %: 97.1117  AVERAGE MISS PENALTY: 493.468
LLC4 WRITEBACK ACCESS: 151367  HIT: 106443  MISS: 44924  HIT %: 70.3211  MISS %: 29.6789  AVERAGE MISS PENALTY: 0
LLC4 PREFETCH  REQUESTED:     0  ISSUED:     0  USEFUL: 16348  USELESS: 3699893
 USEFUL LOAD PREFETCHES:      16348 PREFETCH ISSUED TO LOWER LEVEL:    3717239  ACCURACY: 0.439789
 TIMELY PREFETCHES:      16348 LATE PREFETCHES: 0 DROPPED PREFETCHES: 0
LLC4 AVERAGE MISS LATENCY: 476.642 cycles
LLC5 TOTAL     ACCESS: 931469  HIT: 125348  MISS: 806121  HIT %: 13.457  MISS %: 86.543  AVERAGE MISS PENALTY: 460.635
LLC5 LOAD      ACCESS: 262189  HIT:  5662  MISS: 256527  HIT %: 2.15951  MISS %: 97.8405  AVERAGE MISS PENALTY: 516.737
LLC5 RFO       ACCESS: 52718  HIT:    23  MISS: 52695  HIT %: 0.0436284  MISS %: 99.9564  AVERAGE MISS PENALTY: 420.257
LLC5 PREFETCH  ACCESS: 466059  HIT: 13739  MISS: 452320  HIT %: 2.94791  MISS %: 97.0521  AVERAGE MISS PENALTY: 478.921
LLC5 WRITEBACK ACCESS: 150503  HIT: 105924  MISS: 44579  HIT %: 70.38  MISS %: 29.62  AVERAGE MISS PENALTY: 0
LLC5 PREFETCH  REQUESTED:     0  ISSUED:     0  USEFUL: 16327  USELESS: 3606404
 USEFUL LOAD PREFETCHES:      16327 PREFETCH ISSUED TO LOWER LEVEL:    3623900  ACCURACY: 0.450537
 TIMELY PREFETCHES:      16327 LATE PREFETCHES: 0 DROPPED PREFETCHES: 0
LLC5 AVERAGE MISS LATENCY: 460.635 cycles
LLC6 TOTAL     ACCESS: 931843  HIT: 125463  MISS: 806380  HIT %: 13.464  MISS %: 86.536  AVERAGE MISS PENALTY: 471.25
LLC6 LOAD      ACCESS: 262093  HIT:  5685  MISS: 256408  HIT %: 2.16908  MISS %: 97.8309  AVERAGE MISS PENALTY: 536.23
LLC6 RFO       ACCESS: 52656  HIT:    19  MISS: 52637  HIT %: 0.0360833  MISS %: 99.9639  AVERAGE MISS PENALTY: 432.788
LLC6 PREFETCH  ACCESS: 465995  HIT: 13426  MISS: 452569  HIT %: 2.88115  MISS %: 97.1189  AVERAGE MISS PENALTY: 485.523
LLC6 WRITEBACK ACCESS: 151099  HIT: 106333  MISS: 44766  HIT %: 70.3731  MISS %: 29.6269  AVERAGE MISS PENALTY: 0
LLC6 PREFETCH  REQUESTED:     0  ISSUED:     0  USEFUL: 15478  USELESS: 3606892
 USEFUL LOAD PREFETCHES:      15478 PREFETCH ISSUED TO LOWER LEVEL:    3628432  ACCURACY: 0.426575
 TIMELY PREFETCHES:      15478 LATE PREFETCHES: 0 DROPPED PREFETCHES: 0
LLC6 AVERAGE MISS LATENCY: 471.25 cycles
LLC7 TOTAL     ACCESS: 927702  HIT: 125427  MISS: 802275  HIT %: 13.5202  MISS %: 86.4798  AVERAGE MISS PENALTY: 459.093
LLC7 LOAD      ACCESS: 279749  HIT:  6024  MISS: 273725  HIT %: 2.15336  MISS %: 97.8466  AVERAGE MISS PENALTY: 509.05
LLC7 RFO       ACCESS: 52688  HIT:    26  MISS: 52662  HIT %: 0.0493471  MISS %: 99.9507  AVERAGE MISS PENALTY: 425.683
LLC7 PREFETCH  ACCESS: 444048  HIT: 13058  MISS: 430990  HIT %: 2.94067  MISS %: 97.0593  AVERAGE MISS PENALTY: 479.272
LLC7 WRITEBACK ACCESS: 151217  HIT: 106319  MISS: 44898  HIT %: 70.3089  MISS %: 29.6911  AVERAGE MISS PENALTY: 0
LLC7 PREFETCH  REQUESTED:     0  ISSUED:     0  USEFUL: 15298  USELESS: 3431952
 USEFUL LOAD PREFETCHES:      15298 PREFETCH ISSUED TO LOWER LEVEL:    3445013  ACCURACY: 0.444062
 TIMELY PREFETCHES:      15298 LATE PREFETCHES: 0 DROPPED PREFETCHES: 0
LLC7 AVERAGE MISS LATENCY: 459.093 cycles
ROI Average ROB Stall Cycles:	11.2921
ROI Total ROB Stalls Cycles:	709593618
ROI TOTAL ROB counter      :	62839631
ROI Average Load ROB Stall Cycles:	39.2651
ROI Total Load ROB Stalls Cycle  :	404378080
ROI Total Load ROB stalls Counter:	10298668
Major fault: 0 Minor fault: 97431

CPU 7 cumulative IPC: 0.27025 instructions: 200000000 cycles: 740056044
ITLB TOTAL     ACCESS: 45241187  HIT: 45241187  MISS:     0  HIT %:   100  MISS %:     0  AVERAGE MISS PENALTY: 0
ITLB LOAD      ACCESS: 45241187  HIT: 45241187  MISS:     0  HIT %:   100  MISS %:     0  AVERAGE MISS PENALTY: 0
ITLB RFO       ACCESS:     0  HIT:     0  MISS:     0  HIT %:     0  MISS %:     0  AVERAGE MISS PENALTY: 0
ITLB PREFETCH  ACCESS:     0  HIT:     0  MISS:     0  HIT %:     0  MISS %:     0  AVERAGE MISS PENALTY: 0
ITLB WRITEBACK ACCESS:     0  HIT:     0  MISS:     0  HIT %:     0  MISS %:     0  AVERAGE MISS PENALTY: 0
ITLB PREFETCH  REQUESTED:     0  ISSUED:     0  USEFUL:     0  USELESS:     0
 USEFUL LOAD PREFETCHES:          0 PREFETCH ISSUED TO LOWER LEVEL:          0  ACCURACY: -nan
 TIMELY PREFETCHES:          0 LATE PREFETCHES: 0 DROPPED PREFETCHES: 0
ITLB AVERAGE MISS LATENCY: -nan cycles
DTLB TOTAL     ACCESS: 63260902  HIT: 62521837  MISS: 739065  HIT %: 98.8317  MISS %: 1.16828  AVERAGE MISS PENALTY: 29.7164
DTLB LOAD      ACCESS: 40973012  HIT: 40255220  MISS: 717792  HIT %: 98.2481  MISS %: 1.75187  AVERAGE MISS PENALTY: 29.2232
DTLB RFO       ACCESS: 22287890  HIT: 22266617  MISS: 21273  HIT %: 99.9046  MISS %: 0.0954465  AVERAGE MISS PENALTY: 46.3575
DTLB PREFETCH  ACCESS:     0  HIT:     0  MISS:     0  HIT %:     0  MISS %:     0  AVERAGE MISS PENALTY: 0
DTLB WRITEBACK ACCESS:     0  HIT:     0  MISS:     0  HIT %:     0  MISS %:     0  AVERAGE MISS PENALTY: 0
DTLB PREFETCH  REQUESTED:     0  ISSUED:     0  USEFUL:     0  USELESS:     0
 USEFUL LOAD PREFETCHES:          0 PREFETCH ISSUED TO LOWER LEVEL:          0  ACCURACY: -nan
 TIMELY PREFETCHES:          0 LATE PREFETCHES: 0 DROPPED PREFETCHES: 0
DTLB AVERAGE MISS LATENCY: 29.7164 cycles
STLB TOTAL     ACCESS: 739065  HIT: 587095  MISS: 151970  HIT %: 79.4375  MISS %: 20.5625  AVERAGE MISS PENALTY: 100
STLB LOAD      ACCESS: 717792  HIT: 573395  MISS: 144397  HIT %: 79.8832  MISS %: 20.1168  AVERAGE MISS PENALTY: 100
STLB RFO       ACCESS: 21273  HIT: 13700  MISS:  7573  HIT %: 64.4009  MISS %: 35.5991  AVERAGE MISS PENALTY: 100
STLB PREFETCH  ACCESS:     0  HIT:     0  MISS:     0  HIT %:     0  MISS %:     0  AVERAGE MISS PENALTY: 0
STLB WRITEBACK ACCESS:     0  HIT:     0  MISS:     0  HIT %:     0  MISS %:     0  AVERAGE MISS PENALTY: 0
STLB PREFETCH  REQUESTED:     0  ISSUED:     0  USEFUL:     0  USELESS:     0
 USEFUL LOAD PREFETCHES:          0 PREFETCH ISSUED TO LOWER LEVEL:          0  ACCURACY: -nan
 TIMELY PREFETCHES:          0 LATE PREFETCHES: 0 DROPPED PREFETCHES: 0
STLB AVERAGE MISS LATENCY: 100 cycles
L1D TOTAL     ACCESS: 118561018  HIT: 111772963  MISS: 6788055  HIT %: 94.2746  MISS %: 5.72537  AVERAGE MISS PENALTY: 7.20575e+07
L1D LOAD      ACCESS: 40720602  HIT: 37866633  MISS: 2853969  HIT %: 92.9913  MISS %: 7.00866  AVERAGE MISS PENALTY: 1.69175e+08
L1D RFO       ACCESS: 55518807  HIT: 55077622  MISS: 441185  HIT %: 99.2053  MISS %: 0.794659  AVERAGE MISS PENALTY: 1.4299e+07
L1D PREFETCH  ACCESS: 22321609  HIT: 18828708  MISS: 3492901  HIT %: 84.3519  MISS %: 15.6481  AVERAGE MISS PENALTY: 337.592
L1D WRITEBACK ACCESS:     0  HIT:     0  MISS:     0  HIT %:     0  MISS %:     0  AVERAGE MISS PENALTY: 0
L1D PREFETCH  REQUESTED: 25283235  ISSUED: 25096444  USEFUL: 2197910  USELESS: 1294848
 USEFUL LOAD PREFETCHES:    2197910 PREFETCH ISSUED TO LOWER LEVEL:    6931171  ACCURACY: 31.7105
 TIMELY PREFETCHES:    2197910 LATE PREFETCHES: 1187527 DROPPED PREFETCHES: 186791
L1D AVERAGE MISS LATENCY: 929733 cycles
L1I TOTAL     ACCESS: 56978642  HIT: 56978642  MISS:     0  HIT %:   100  MISS %:     0  AVERAGE MISS PENALTY: 0
L1I LOAD      ACCESS: 56978642  HIT: 56978642  MISS:     0  HIT %:   100  MISS %:     0  AVERAGE MISS PENALTY: 0
L1I RFO       ACCESS:     0  HIT:     0  MISS:     0  HIT %:     0  MISS %:     0  AVERAGE MISS PENALTY: 0
L1I PREFETCH  ACCESS:     0  HIT:     0  MISS:     0  HIT %:     0  MISS %:     0  AVERAGE MISS PENALTY: 0
L1I WRITEBACK ACCESS:     0  HIT:     0  MISS:     0  HIT %:     0  MISS %:     0  AVERAGE MISS PENALTY: 0
L1I PREFETCH  REQUESTED:     0  ISSUED:     0  USEFUL:     0  USELESS:     0
 USEFUL LOAD PREFETCHES:          0 PREFETCH ISSUED TO LOWER LEVEL:          0  ACCURACY: -nan
 TIMELY PREFETCHES:          0 LATE PREFETCHES: 0 DROPPED PREFETCHES: 0
L1I AVERAGE MISS LATENCY: -nan cycles
L2C TOTAL     ACCESS: 9182906  HIT: 2928175  MISS: 6254731  HIT %: 31.8872  MISS %: 68.1128  AVERAGE MISS PENALTY: 6.93915e+07
L2C LOAD      ACCESS: 2819087  HIT: 218516  MISS: 2600571  HIT %: 7.7513  MISS %: 92.2487  AVERAGE MISS PENALTY: 1.66815e+08
L2C RFO       ACCESS: 427971  HIT:  4750  MISS: 423221  HIT %: 1.10989  MISS %: 98.8901  AVERAGE MISS PENALTY: 496644
L2C PREFETCH  ACCESS: 4630451  HIT: 1407077  MISS: 3223374  HIT %: 30.3875  MISS %: 69.6125  AVERAGE MISS PENALTY: 464.858
L2C WRITEBACK ACCESS: 1305397  HIT: 1297832  MISS:  7565  HIT %: 99.4205  MISS %: 0.579517  AVERAGE MISS PENALTY: 0
L2C PREFETCH  REQUESTED: 1850095  ISSUED: 1827146  USEFUL: 133427  USELESS: 3090719
 USEFUL LOAD PREFETCHES:     133427 PREFETCH ISSUED TO LOWER LEVEL:    4506107  ACCURACY: 2.96103
 TIMELY PREFETCHES:     133427 LATE PREFETCHES: 912079 DROPPED PREFETCHES: 22949
L2C AVERAGE MISS LATENCY: 487.139 cycles
LLC0 TOTAL     ACCESS: 921707  HIT: 127698  MISS: 794009  HIT %: 13.8545  MISS %: 86.1455  AVERAGE MISS PENALTY: 466.84
LLC0 LOAD      ACCESS: 248356  HIT:  5614  MISS: 242742  HIT %: 2.26046  MISS %: 97.7395  AVERAGE MISS PENALTY: 522.106
LLC0 RFO       ACCESS: 53833  HIT:    19  MISS: 53814  HIT %: 0.0352943  MISS %: 99.9647  AVERAGE MISS PENALTY: 416.849
LLC0 PREFETCH  ACCESS: 467265  HIT: 14733  MISS: 452532  HIT %: 3.15303  MISS %: 96.847  AVERAGE MISS PENALTY: 489.481
LLC0 WRITEBACK ACCESS: 152253  HIT: 107332  MISS: 44921  HIT %: 70.4958  MISS %: 29.5042  AVERAGE MISS PENALTY: 0
LLC0 PREFETCH  REQUESTED:     0  ISSUED:     0  USEFUL: 16726  USELESS: 3619614
 USEFUL LOAD PREFETCHES:      16726 PREFETCH ISSUED TO LOWER LEVEL:    3642125  ACCURACY: 0.459237
 TIMELY PREFETCHES:      16726 LATE PREFETCHES: 0 DROPPED PREFETCHES: 0
LLC0 AVERAGE MISS LATENCY: 466.84 cycles
Deadblocks : 1928082 Deadblock percentage : 794.293

LLC1 TOTAL     ACCESS: 936442  HIT: 126846  MISS: 809596  HIT %: 13.5455  MISS %: 86.4545  AVERAGE MISS PENALTY: 472.442
LLC1 LOAD      ACCESS: 249569  HIT:  5654  MISS: 243915  HIT %: 2.26551  MISS %: 97.7345  AVERAGE MISS PENALTY: 535.75
LLC1 RFO       ACCESS: 52851  HIT:    34  MISS: 52817  HIT %: 0.0643318  MISS %: 99.9357  AVERAGE MISS PENALTY: 425.035
LLC1 PREFETCH  ACCESS: 482726  HIT: 14862  MISS: 467864  HIT %: 3.07877  MISS %: 96.9212  AVERAGE MISS PENALTY: 490.229
LLC1 WRITEBACK ACCESS: 151296  HIT: 106296  MISS: 45000  HIT %: 70.257  MISS %: 29.743  AVERAGE MISS PENALTY: 0
LLC1 PREFETCH  REQUESTED:     0  ISSUED:     0  USEFUL: 17053  USELESS: 3744117
 USEFUL LOAD PREFETCHES:      17053 PREFETCH ISSUED TO LOWER LEVEL:    3761545  ACCURACY: 0.453351
 TIMELY PREFETCHES:      17053 LATE PREFETCHES: 0 DROPPED PREFETCHES: 0
LLC1 AVERAGE MISS LATENCY: 472.442 cycles
LLC2 TOTAL     ACCESS: 942364  HIT: 126443  MISS: 815921  HIT %: 13.4176  MISS %: 86.5824  AVERAGE MISS PENALTY: 462.978
LLC2 LOAD      ACCESS: 239582  HIT:  5294  MISS: 234288  HIT %: 2.20968  MISS %: 97.7903  AVERAGE MISS PENALTY: 530.045
LLC2 RFO       ACCESS: 52678  HIT:    19  MISS: 52659  HIT %: 0.0360682  MISS %: 99.9639  AVERAGE MISS PENALTY: 421.676
LLC2 PREFETCH  ACCESS: 498550  HIT: 15036  MISS: 483514  HIT %: 3.01595  MISS %: 96.9841  AVERAGE MISS PENALTY: 478.508
LLC2 WRITEBACK ACCESS: 151554  HIT: 106094  MISS: 45460  HIT %: 70.0041  MISS %: 29.9959  AVERAGE MISS PENALTY: 0
LLC2 PREFETCH  REQUESTED:     0  ISSUED:     0  USEFUL: 16335  USELESS: 3865196
 USEFUL LOAD PREFETCHES:      16335 PREFETCH ISSUED TO LOWER LEVEL:    3883304  ACCURACY: 0.420647
 TIMELY PREFETCHES:      16335 LATE PREFETCHES: 0 DROPPED PREFETCHES: 0
LLC2 AVERAGE MISS LATENCY: 462.978 cycles
LLC3 TOTAL     ACCESS: 934330  HIT: 126434  MISS: 807896  HIT %: 13.532  MISS %: 86.468  AVERAGE MISS PENALTY: 468.586
LLC3 LOAD      ACCESS: 250194  HIT:  5416  MISS: 244778  HIT %: 2.16472  MISS %: 97.8353  AVERAGE MISS PENALTY: 524.242
LLC3 RFO       ACCESS: 52707  HIT:    24  MISS: 52683  HIT %: 0.0455347  MISS %: 99.9545  AVERAGE MISS PENALTY: 428.029
LLC3 PREFETCH  ACCESS: 480454  HIT: 14951  MISS: 465503  HIT %: 3.11185  MISS %: 96.8882  AVERAGE MISS PENALTY: 489.14
LLC3 WRITEBACK ACCESS: 150975  HIT: 106043  MISS: 44932  HIT %: 70.2388  MISS %: 29.7612  AVERAGE MISS PENALTY: 0
LLC3 PREFETCH  REQUESTED:     0  ISSUED:     0  USEFUL: 16522  USELESS: 3725022
 USEFUL LOAD PREFETCHES:      16522 PREFETCH ISSUED TO LOWER LEVEL:    3738199  ACCURACY: 0.441978
 TIMELY PREFETCHES:      16522 LATE PREFETCHES: 0 DROPPED PREFETCHES: 0
LLC3 AVERAGE MISS LATENCY: 468.586 cycles
LLC4 TOTAL     ACCESS: 931381  HIT: 127563  MISS: 803818  HIT %: 13.6961  MISS %: 86.3039  AVERAGE MISS PENALTY: 474.892
LLC4 LOAD      ACCESS: 250111  HIT:  5690  MISS: 244421  HIT %: 2.27499  MISS %: 97.725  AVERAGE MISS PENALTY: 543.727
LLC4 RFO       ACCESS: 52683  HIT:    23  MISS: 52660  HIT %: 0.0436573  MISS %: 99.9563  AVERAGE MISS PENALTY: 422.392
LLC4 PREFETCH  ACCESS: 477014  HIT: 15129  MISS: 461885  HIT %: 3.17161  MISS %: 96.8284  AVERAGE MISS PENALTY: 490.566
LLC4 WRITEBACK ACCESS: 151573  HIT: 106721  MISS: 44852  HIT %: 70.409  MISS %: 29.591  AVERAGE MISS PENALTY: 0
LLC4 PREFETCH  REQUESTED:     0  ISSUED:     0  USEFUL: 16348  USELESS: 3699893
 USEFUL LOAD PREFETCHES:      16348 PREFETCH ISSUED TO LOWER LEVEL:    3717239  ACCURACY: 0.439789
 TIMELY PREFETCHES:      16348 LATE PREFETCHES: 0 DROPPED PREFETCHES: 0
LLC4 AVERAGE MISS LATENCY: 474.892 cycles
LLC5 TOTAL     ACCESS: 931689  HIT: 126655  MISS: 805034  HIT %: 13.5941  MISS %: 86.4059  AVERAGE MISS PENALTY: 458.594
LLC5 LOAD      ACCESS: 262968  HIT:  5896  MISS: 257072  HIT %: 2.2421  MISS %: 97.7579  AVERAGE MISS PENALTY: 517.636
LLC5 RFO       ACCESS: 52717  HIT:    23  MISS: 52694  HIT %: 0.0436292  MISS %: 99.9564  AVERAGE MISS PENALTY: 416.157
LLC5 PREFETCH  ACCESS: 465289  HIT: 14659  MISS: 450630  HIT %: 3.15052  MISS %: 96.8495  AVERAGE MISS PENALTY: 475.302
LLC5 WRITEBACK ACCESS: 150715  HIT: 106077  MISS: 44638  HIT %: 70.3825  MISS %: 29.6175  AVERAGE MISS PENALTY: 0
LLC5 PREFETCH  REQUESTED:     0  ISSUED:     0  USEFUL: 16327  USELESS: 3606404
 USEFUL LOAD PREFETCHES:      16327 PREFETCH ISSUED TO LOWER LEVEL:    3623900  ACCURACY: 0.450537
 TIMELY PREFETCHES:      16327 LATE PREFETCHES: 0 DROPPED PREFETCHES: 0
LLC5 AVERAGE MISS LATENCY: 458.594 cycles
LLC6 TOTAL     ACCESS: 932416  HIT: 127068  MISS: 805348  HIT %: 13.6278  MISS %: 86.3722  AVERAGE MISS PENALTY: 469.22
LLC6 LOAD      ACCESS: 262942  HIT:  5797  MISS: 257145  HIT %: 2.20467  MISS %: 97.7953  AVERAGE MISS PENALTY: 536.896
LLC6 RFO       ACCESS: 52638  HIT:    14  MISS: 52624  HIT %: 0.0265968  MISS %: 99.9734  AVERAGE MISS PENALTY: 424.156
LLC6 PREFETCH  ACCESS: 465518  HIT: 14556  MISS: 450962  HIT %: 3.12684  MISS %: 96.8732  AVERAGE MISS PENALTY: 482.312
LLC6 WRITEBACK ACCESS: 151318  HIT: 106701  MISS: 44617  HIT %: 70.5144  MISS %: 29.4856  AVERAGE MISS PENALTY: 0
LLC6 PREFETCH  REQUESTED:     0  ISSUED:     0  USEFUL: 15478  USELESS: 3606892
 USEFUL LOAD PREFETCHES:      15478 PREFETCH ISSUED TO LOWER LEVEL:    3628432  ACCURACY: 0.426575
 TIMELY PREFETCHES:      15478 LATE PREFETCHES: 0 DROPPED PREFETCHES: 0
LLC6 AVERAGE MISS LATENCY: 469.22 cycles
LLC7 TOTAL     ACCESS: 927885  HIT: 126278  MISS: 801607  HIT %: 13.6092  MISS %: 86.3908  AVERAGE MISS PENALTY: 457.602
LLC7 LOAD      ACCESS: 280619  HIT:  6145  MISS: 274474  HIT %: 2.1898  MISS %: 97.8102  AVERAGE MISS PENALTY: 510.072
LLC7 RFO       ACCESS: 52681  HIT:    36  MISS: 52645  HIT %: 0.0683358  MISS %: 99.9317  AVERAGE MISS PENALTY: 420.466
LLC7 PREFETCH  ACCESS: 443214  HIT: 13785  MISS: 429429  HIT %: 3.11024  MISS %: 96.8898  AVERAGE MISS PENALTY: 476.632
LLC7 WRITEBACK ACCESS: 151371  HIT: 106312  MISS: 45059  HIT %: 70.2327  MISS %: 29.7673  AVERAGE MISS PENALTY: 0
LLC7 PREFETCH  REQUESTED:     0  ISSUED:     0  USEFUL: 15298  USELESS: 3431952
 USEFUL LOAD PREFETCHES:      15298 PREFETCH ISSUED TO LOWER LEVEL:    3445013  ACCURACY: 0.444062
 TIMELY PREFETCHES:      15298 LATE PREFETCHES: 0 DROPPED PREFETCHES: 0
LLC7 AVERAGE MISS LATENCY: 457.602 cycles
ROI Average ROB Stall Cycles:	11.2704
ROI Total ROB Stalls Cycles:	708211267
ROI TOTAL ROB counter      :	62838002
ROI Average Load ROB Stall Cycles:	39.2235
ROI Total Load ROB Stalls Cycle  :	403909433
ROI Total Load ROB stalls Counter:	10297637
Major fault: 0 Minor fault: 97432








Interconnect Stats 
LINK 0 BW : 0LINK 1 BW : 0LINK 2 BW : 0LINK 3 BW : 0LINK 4 BW : 0LINK 5 BW : 0LINK 6 BW : 0LINK 7 BW : 0
DRAM Statistics
 CHANNEL 0
 RQ ROW_BUFFER_HIT: 6338579  ROW_BUFFER_MISS: 18019825
 DBUS_CONGESTED: 21664043
 WQ ROW_BUFFER_HIT: 315694  ROW_BUFFER_MISS: 4514146  FULL:     0

 CHANNEL 1
 RQ ROW_BUFFER_HIT: 6306293  ROW_BUFFER_MISS: 18094922
 DBUS_CONGESTED: 21664043
 WQ ROW_BUFFER_HIT: 311601  ROW_BUFFER_MISS: 4499207  FULL:     0

 AVG_CONGESTED_CYCLE: 6
DRAM PAGES: 2097152
Allocated PAGES: 779451
L2C destructor called
L1D destructor called
L1I destructor called
STLB destructor called
DTLB destructor called
ITLB destructor called
L2C destructor called
L1D destructor called
L1I destructor called
STLB destructor called
DTLB destructor called
ITLB destructor called
L2C destructor called
L1D destructor called
L1I destructor called
STLB destructor called
DTLB destructor called
ITLB destructor called
L2C destructor called
L1D destructor called
L1I destructor called
STLB destructor called
DTLB destructor called
ITLB destructor called
L2C destructor called
L1D destructor called
L1I destructor called
STLB destructor called
DTLB destructor called
ITLB destructor called
L2C destructor called
L1D destructor called
L1I destructor called
STLB destructor called
DTLB destructor called
ITLB destructor called
L2C destructor called
L1D destructor called
L1I destructor called
STLB destructor called
DTLB destructor called
ITLB destructor called
L2C destructor called
L1D destructor called
L1I destructor called
STLB destructor called
DTLB destructor called
ITLB destructor called
