
*** ChampSim Multicore Out-of-Order Simulator ***

Warmup Instructions: 200000000
Simulation Instructions: 200000000
Number of CPUs: 8
threads:1

L1I Configuration:
L1I_SET:64
L1I_WAY:8
L1I_RQ_SIZE:64
L1I_WQ_SIZE:64
L1I_PQ_SIZE:8
L1I_MSHR_SIZE:8

L1D Configuration:
L1D_SET:64
L1D_WAY:12
L1D_RQ_SIZE:64
L1D_WQ_SIZE:64
L1D_PQ_SIZE:8
L1D_MSHR_SIZE:16

L2C Configuration:
L2C_SET:1024
L2C_WAY:8
L2C_RQ_SIZE:32
L2C_WQ_SIZE:32
L2C_PQ_SIZE:16
L2C_MSHR_SIZE:32

LLC Configuration:
LLC_SET:2048
LLC_WAY:16
LLC SLICES:8
LLC_RQ_SIZE:64
LLC_WQ_SIZE:64
LLC_PQ_SIZE:32
LLC_MSHR_SIZE:64

Interconnect OFF
Attacker deprioritize is: OFF
Off-chip DRAM Size: 8192 MB Channels: 2 Width: 64-bit Data Rate: 3200 MT/s
PAGE SIZE in KB: 4.000000 
PAGE SIZE in MB: 0.003906 
PAGE offset in bits: 12 
CEASER-S_LLC:0
MIRAGE : 1
CEASER_LATENCY:3
REMAP : OFF
Partitions : 1
Multi-Step : OFF
BFS : OFF

CPU 0 runs /home/anubhav/spec_2017/607.cactuBSSN_s-4004B.champsimtrace.xz
CPU 1 runs /home/anubhav/spec_2017/607.cactuBSSN_s-4004B.champsimtrace.xz
CPU 2 runs /home/anubhav/spec_2017/607.cactuBSSN_s-4004B.champsimtrace.xz
CPU 3 runs /home/anubhav/spec_2017/607.cactuBSSN_s-4004B.champsimtrace.xz
CPU 4 runs /home/anubhav/spec_2017/607.cactuBSSN_s-4004B.champsimtrace.xz
CPU 5 runs /home/anubhav/spec_2017/607.cactuBSSN_s-4004B.champsimtrace.xz
CPU 6 runs /home/anubhav/spec_2017/607.cactuBSSN_s-4004B.champsimtrace.xz
CPU 7 runs /home/anubhav/spec_2017/607.cactuBSSN_s-4004B.champsimtrace.xz
CPU 0 Bimodal branch predictor
Initialize Hawkeye state
Initialize Hawkeye state
Initialize Hawkeye state
Initialize Hawkeye state
Initialize Hawkeye state
Initialize Hawkeye state
Initialize Hawkeye state
Initialize Hawkeye state
CPU 1 Bimodal branch predictor
Initialize Hawkeye state
Initialize Hawkeye state
Initialize Hawkeye state
Initialize Hawkeye state
Initialize Hawkeye state
Initialize Hawkeye state
Initialize Hawkeye state
Initialize Hawkeye state
CPU 2 Bimodal branch predictor
Initialize Hawkeye state
Initialize Hawkeye state
Initialize Hawkeye state
Initialize Hawkeye state
Initialize Hawkeye state
Initialize Hawkeye state
Initialize Hawkeye state
Initialize Hawkeye state
CPU 3 Bimodal branch predictor
Initialize Hawkeye state
Initialize Hawkeye state
Initialize Hawkeye state
Initialize Hawkeye state
Initialize Hawkeye state
Initialize Hawkeye state
Initialize Hawkeye state
Initialize Hawkeye state
CPU 4 Bimodal branch predictor
Initialize Hawkeye state
Initialize Hawkeye state
Initialize Hawkeye state
Initialize Hawkeye state
Initialize Hawkeye state
Initialize Hawkeye state
Initialize Hawkeye state
Initialize Hawkeye state
CPU 5 Bimodal branch predictor
Initialize Hawkeye state
Initialize Hawkeye state
Initialize Hawkeye state
Initialize Hawkeye state
Initialize Hawkeye state
Initialize Hawkeye state
Initialize Hawkeye state
Initialize Hawkeye state
CPU 6 Bimodal branch predictor
Initialize Hawkeye state
Initialize Hawkeye state
Initialize Hawkeye state
Initialize Hawkeye state
Initialize Hawkeye state
Initialize Hawkeye state
Initialize Hawkeye state
Initialize Hawkeye state
CPU 7 Bimodal branch predictor
Initialize Hawkeye state
Initialize Hawkeye state
Initialize Hawkeye state
Initialize Hawkeye state
Initialize Hawkeye state
Initialize Hawkeye state
Initialize Hawkeye state
Initialize Hawkeye state
Heartbeat CPU 3 instructions: 10000000 cycles: 5485673 heartbeat IPC: 1.82293 cumulative IPC: 1.82293 (Simulation time: 0 hr 28 min 51 sec) 
 Total Blocks : 262144 Invalid Blocks : 89624
Heartbeat CPU 2 instructions: 10000000 cycles: 5485872 heartbeat IPC: 1.82286 cumulative IPC: 1.82286 (Simulation time: 0 hr 28 min 51 sec) 
 Total Blocks : 262144 Invalid Blocks : 89624
Heartbeat CPU 1 instructions: 10000000 cycles: 5486186 heartbeat IPC: 1.82276 cumulative IPC: 1.82276 (Simulation time: 0 hr 28 min 51 sec) 
 Total Blocks : 262144 Invalid Blocks : 89623
Heartbeat CPU 7 instructions: 10000000 cycles: 5486682 heartbeat IPC: 1.8226 cumulative IPC: 1.8226 (Simulation time: 0 hr 28 min 51 sec) 
 Total Blocks : 262144 Invalid Blocks : 89623
Heartbeat CPU 5 instructions: 10000000 cycles: 5486698 heartbeat IPC: 1.82259 cumulative IPC: 1.82259 (Simulation time: 0 hr 28 min 51 sec) 
 Total Blocks : 262144 Invalid Blocks : 89623
Heartbeat CPU 0 instructions: 10000000 cycles: 5486776 heartbeat IPC: 1.82256 cumulative IPC: 1.82256 (Simulation time: 0 hr 28 min 51 sec) 
 Total Blocks : 262144 Invalid Blocks : 89623
Heartbeat CPU 6 instructions: 10000000 cycles: 5486906 heartbeat IPC: 1.82252 cumulative IPC: 1.82252 (Simulation time: 0 hr 28 min 51 sec) 
 Total Blocks : 262144 Invalid Blocks : 89623
Heartbeat CPU 4 instructions: 10000000 cycles: 5486962 heartbeat IPC: 1.8225 cumulative IPC: 1.8225 (Simulation time: 0 hr 28 min 51 sec) 
 Total Blocks : 262144 Invalid Blocks : 89623
Heartbeat CPU 3 instructions: 20000000 cycles: 10971319 heartbeat IPC: 1.82294 cumulative IPC: 1.82293 (Simulation time: 0 hr 58 min 26 sec) 
 Total Blocks : 262144 Invalid Blocks : 36394
Heartbeat CPU 1 instructions: 20000000 cycles: 10971557 heartbeat IPC: 1.82303 cumulative IPC: 1.8229 (Simulation time: 0 hr 58 min 26 sec) 
 Total Blocks : 262144 Invalid Blocks : 36387
Heartbeat CPU 2 instructions: 20000000 cycles: 10971636 heartbeat IPC: 1.8229 cumulative IPC: 1.82288 (Simulation time: 0 hr 58 min 26 sec) 
 Total Blocks : 262144 Invalid Blocks : 36387
Heartbeat CPU 7 instructions: 20000000 cycles: 10972126 heartbeat IPC: 1.82301 cumulative IPC: 1.8228 (Simulation time: 0 hr 58 min 26 sec) 
 Total Blocks : 262144 Invalid Blocks : 36384
Heartbeat CPU 5 instructions: 20000000 cycles: 10972454 heartbeat IPC: 1.8229 cumulative IPC: 1.82275 (Simulation time: 0 hr 58 min 26 sec) 
 Total Blocks : 262144 Invalid Blocks : 36366
Heartbeat CPU 0 instructions: 20000000 cycles: 10972530 heartbeat IPC: 1.8229 cumulative IPC: 1.82273 (Simulation time: 0 hr 58 min 26 sec) 
 Total Blocks : 262144 Invalid Blocks : 36366
Heartbeat CPU 6 instructions: 20000000 cycles: 10972603 heartbeat IPC: 1.82292 cumulative IPC: 1.82272 (Simulation time: 0 hr 58 min 26 sec) 
 Total Blocks : 262144 Invalid Blocks : 36366
Heartbeat CPU 4 instructions: 20000000 cycles: 10972696 heartbeat IPC: 1.82291 cumulative IPC: 1.82271 (Simulation time: 0 hr 58 min 26 sec) 
 Total Blocks : 262144 Invalid Blocks : 36366
Heartbeat CPU 3 instructions: 30000001 cycles: 16456702 heartbeat IPC: 1.82303 cumulative IPC: 1.82297 (Simulation time: 1 hr 27 min 59 sec) 
 Total Blocks : 262144 Invalid Blocks : 14732
Heartbeat CPU 1 instructions: 30000001 cycles: 16456755 heartbeat IPC: 1.82309 cumulative IPC: 1.82296 (Simulation time: 1 hr 27 min 59 sec) 
 Total Blocks : 262144 Invalid Blocks : 14732
Heartbeat CPU 2 instructions: 30000001 cycles: 16457145 heartbeat IPC: 1.82299 cumulative IPC: 1.82292 (Simulation time: 1 hr 27 min 59 sec) 
 Total Blocks : 262144 Invalid Blocks : 14732
Heartbeat CPU 7 instructions: 30000001 cycles: 16457426 heartbeat IPC: 1.82305 cumulative IPC: 1.82289 (Simulation time: 1 hr 27 min 59 sec) 
 Total Blocks : 262144 Invalid Blocks : 14732
Heartbeat CPU 5 instructions: 30000001 cycles: 16457715 heartbeat IPC: 1.82307 cumulative IPC: 1.82285 (Simulation time: 1 hr 27 min 59 sec) 
 Total Blocks : 262144 Invalid Blocks : 14732
Heartbeat CPU 0 instructions: 30000001 cycles: 16458018 heartbeat IPC: 1.82299 cumulative IPC: 1.82282 (Simulation time: 1 hr 27 min 59 sec) 
 Total Blocks : 262144 Invalid Blocks : 14732
Heartbeat CPU 6 instructions: 30000001 cycles: 16458137 heartbeat IPC: 1.82298 cumulative IPC: 1.82281 (Simulation time: 1 hr 28 min 0 sec) 
 Total Blocks : 262144 Invalid Blocks : 14732
Heartbeat CPU 4 instructions: 30000001 cycles: 16458163 heartbeat IPC: 1.823 cumulative IPC: 1.8228 (Simulation time: 1 hr 28 min 0 sec) 
 Total Blocks : 262144 Invalid Blocks : 14732
Heartbeat CPU 3 instructions: 40000003 cycles: 21941816 heartbeat IPC: 1.82312 cumulative IPC: 1.823 (Simulation time: 1 hr 57 min 45 sec) 
 Total Blocks : 262144 Invalid Blocks : 6065
Heartbeat CPU 1 instructions: 40000003 cycles: 21941839 heartbeat IPC: 1.82313 cumulative IPC: 1.823 (Simulation time: 1 hr 57 min 45 sec) 
 Total Blocks : 262144 Invalid Blocks : 6065
Heartbeat CPU 7 instructions: 40000003 cycles: 21942215 heartbeat IPC: 1.82322 cumulative IPC: 1.82297 (Simulation time: 1 hr 57 min 45 sec) 
 Total Blocks : 262144 Invalid Blocks : 6065
Heartbeat CPU 2 instructions: 40000003 cycles: 21942240 heartbeat IPC: 1.82312 cumulative IPC: 1.82297 (Simulation time: 1 hr 57 min 45 sec) 
 Total Blocks : 262144 Invalid Blocks : 6065
Heartbeat CPU 5 instructions: 40000003 cycles: 21942318 heartbeat IPC: 1.82329 cumulative IPC: 1.82296 (Simulation time: 1 hr 57 min 45 sec) 
 Total Blocks : 262144 Invalid Blocks : 6065
Heartbeat CPU 0 instructions: 40000003 cycles: 21943109 heartbeat IPC: 1.82312 cumulative IPC: 1.8229 (Simulation time: 1 hr 57 min 45 sec) 
 Total Blocks : 262144 Invalid Blocks : 6059
Heartbeat CPU 4 instructions: 40000003 cycles: 21943170 heartbeat IPC: 1.82315 cumulative IPC: 1.82289 (Simulation time: 1 hr 57 min 45 sec) 
 Total Blocks : 262144 Invalid Blocks : 6055
Heartbeat CPU 6 instructions: 40000003 cycles: 21943194 heartbeat IPC: 1.82314 cumulative IPC: 1.82289 (Simulation time: 1 hr 57 min 45 sec) 
 Total Blocks : 262144 Invalid Blocks : 6054
Heartbeat CPU 3 instructions: 50000000 cycles: 27427508 heartbeat IPC: 1.82292 cumulative IPC: 1.82299 (Simulation time: 2 hr 26 min 55 sec) 
 Total Blocks : 262144 Invalid Blocks : 2432
Heartbeat CPU 1 instructions: 50000000 cycles: 27427679 heartbeat IPC: 1.82287 cumulative IPC: 1.82298 (Simulation time: 2 hr 26 min 55 sec) 
 Total Blocks : 262144 Invalid Blocks : 2432
Heartbeat CPU 7 instructions: 50000000 cycles: 27427699 heartbeat IPC: 1.82299 cumulative IPC: 1.82297 (Simulation time: 2 hr 26 min 55 sec) 
 Total Blocks : 262144 Invalid Blocks : 2432
Heartbeat CPU 2 instructions: 50000000 cycles: 27427883 heartbeat IPC: 1.82294 cumulative IPC: 1.82296 (Simulation time: 2 hr 26 min 55 sec) 
 Total Blocks : 262144 Invalid Blocks : 2432
Heartbeat CPU 5 instructions: 50000000 cycles: 27428114 heartbeat IPC: 1.82289 cumulative IPC: 1.82295 (Simulation time: 2 hr 26 min 55 sec) 
 Total Blocks : 262144 Invalid Blocks : 2432
Heartbeat CPU 0 instructions: 50000000 cycles: 27428926 heartbeat IPC: 1.82288 cumulative IPC: 1.82289 (Simulation time: 2 hr 26 min 55 sec) 
 Total Blocks : 262144 Invalid Blocks : 2432
Heartbeat CPU 4 instructions: 50000000 cycles: 27428992 heartbeat IPC: 1.82288 cumulative IPC: 1.82289 (Simulation time: 2 hr 26 min 56 sec) 
 Total Blocks : 262144 Invalid Blocks : 2432
Heartbeat CPU 6 instructions: 50000000 cycles: 27429029 heartbeat IPC: 1.82288 cumulative IPC: 1.82289 (Simulation time: 2 hr 26 min 56 sec) 
 Total Blocks : 262144 Invalid Blocks : 2432
Heartbeat CPU 3 instructions: 60000001 cycles: 32913515 heartbeat IPC: 1.82282 cumulative IPC: 1.82296 (Simulation time: 2 hr 56 min 10 sec) 
 Total Blocks : 262144 Invalid Blocks : 1024
Heartbeat CPU 7 instructions: 60000001 cycles: 32913538 heartbeat IPC: 1.82288 cumulative IPC: 1.82296 (Simulation time: 2 hr 56 min 10 sec) 
 Total Blocks : 262144 Invalid Blocks : 1024
Heartbeat CPU 1 instructions: 60000001 cycles: 32913768 heartbeat IPC: 1.82279 cumulative IPC: 1.82295 (Simulation time: 2 hr 56 min 10 sec) 
 Total Blocks : 262144 Invalid Blocks : 1024
Heartbeat CPU 2 instructions: 60000001 cycles: 32913864 heartbeat IPC: 1.82283 cumulative IPC: 1.82294 (Simulation time: 2 hr 56 min 10 sec) 
 Total Blocks : 262144 Invalid Blocks : 1024
Heartbeat CPU 5 instructions: 60000001 cycles: 32914159 heartbeat IPC: 1.82281 cumulative IPC: 1.82292 (Simulation time: 2 hr 56 min 10 sec) 
 Total Blocks : 262144 Invalid Blocks : 1024
Heartbeat CPU 0 instructions: 60000001 cycles: 32915000 heartbeat IPC: 1.8228 cumulative IPC: 1.82288 (Simulation time: 2 hr 56 min 10 sec) 
 Total Blocks : 262144 Invalid Blocks : 1024
Heartbeat CPU 4 instructions: 60000001 cycles: 32915052 heartbeat IPC: 1.8228 cumulative IPC: 1.82287 (Simulation time: 2 hr 56 min 10 sec) 
 Total Blocks : 262144 Invalid Blocks : 1024
Heartbeat CPU 6 instructions: 60000001 cycles: 32915086 heartbeat IPC: 1.8228 cumulative IPC: 1.82287 (Simulation time: 2 hr 56 min 10 sec) 
 Total Blocks : 262144 Invalid Blocks : 1024
Heartbeat CPU 3 instructions: 70000001 cycles: 38398395 heartbeat IPC: 1.82319 cumulative IPC: 1.82299 (Simulation time: 3 hr 25 min 47 sec) 
 Total Blocks : 262144 Invalid Blocks : 412
Heartbeat CPU 7 instructions: 70000001 cycles: 38398801 heartbeat IPC: 1.82307 cumulative IPC: 1.82297 (Simulation time: 3 hr 25 min 47 sec) 
 Total Blocks : 262144 Invalid Blocks : 412
Heartbeat CPU 1 instructions: 70000001 cycles: 38398964 heartbeat IPC: 1.82309 cumulative IPC: 1.82297 (Simulation time: 3 hr 25 min 47 sec) 
 Total Blocks : 262144 Invalid Blocks : 412
Heartbeat CPU 2 instructions: 70000001 cycles: 38398985 heartbeat IPC: 1.82311 cumulative IPC: 1.82296 (Simulation time: 3 hr 25 min 47 sec) 
 Total Blocks : 262144 Invalid Blocks : 412
Heartbeat CPU 5 instructions: 70000001 cycles: 38399370 heartbeat IPC: 1.82308 cumulative IPC: 1.82295 (Simulation time: 3 hr 25 min 47 sec) 
 Total Blocks : 262144 Invalid Blocks : 412
Heartbeat CPU 0 instructions: 70000001 cycles: 38400291 heartbeat IPC: 1.82306 cumulative IPC: 1.8229 (Simulation time: 3 hr 25 min 47 sec) 
 Total Blocks : 262144 Invalid Blocks : 412
Heartbeat CPU 4 instructions: 70000001 cycles: 38400325 heartbeat IPC: 1.82306 cumulative IPC: 1.8229 (Simulation time: 3 hr 25 min 47 sec) 
 Total Blocks : 262144 Invalid Blocks : 412
Heartbeat CPU 6 instructions: 70000001 cycles: 38400360 heartbeat IPC: 1.82306 cumulative IPC: 1.8229 (Simulation time: 3 hr 25 min 47 sec) 
 Total Blocks : 262144 Invalid Blocks : 412
Heartbeat CPU 3 instructions: 80000001 cycles: 43883946 heartbeat IPC: 1.82297 cumulative IPC: 1.82299 (Simulation time: 3 hr 55 min 59 sec) 
 Total Blocks : 262144 Invalid Blocks : 138
Heartbeat CPU 7 instructions: 80000001 cycles: 43884280 heartbeat IPC: 1.82299 cumulative IPC: 1.82298 (Simulation time: 3 hr 56 min 0 sec) 
 Total Blocks : 262144 Invalid Blocks : 138
Heartbeat CPU 1 instructions: 80000001 cycles: 43884527 heartbeat IPC: 1.82297 cumulative IPC: 1.82297 (Simulation time: 3 hr 56 min 0 sec) 
 Total Blocks : 262144 Invalid Blocks : 138
Heartbeat CPU 2 instructions: 80000001 cycles: 43884609 heartbeat IPC: 1.82295 cumulative IPC: 1.82296 (Simulation time: 3 hr 56 min 0 sec) 
 Total Blocks : 262144 Invalid Blocks : 138
Heartbeat CPU 5 instructions: 80000001 cycles: 43884841 heartbeat IPC: 1.823 cumulative IPC: 1.82295 (Simulation time: 3 hr 56 min 0 sec) 
 Total Blocks : 262144 Invalid Blocks : 138
Heartbeat CPU 0 instructions: 80000001 cycles: 43885892 heartbeat IPC: 1.82295 cumulative IPC: 1.82291 (Simulation time: 3 hr 56 min 0 sec) 
 Total Blocks : 262144 Invalid Blocks : 138
Heartbeat CPU 4 instructions: 80000001 cycles: 43885924 heartbeat IPC: 1.82296 cumulative IPC: 1.82291 (Simulation time: 3 hr 56 min 0 sec) 
 Total Blocks : 262144 Invalid Blocks : 138
Heartbeat CPU 6 instructions: 80000001 cycles: 43885991 heartbeat IPC: 1.82294 cumulative IPC: 1.82291 (Simulation time: 3 hr 56 min 0 sec) 
 Total Blocks : 262144 Invalid Blocks : 138
Heartbeat CPU 3 instructions: 90000001 cycles: 49369881 heartbeat IPC: 1.82284 cumulative IPC: 1.82297 (Simulation time: 4 hr 25 min 9 sec) 
 Total Blocks : 262144 Invalid Blocks : 62
Heartbeat CPU 1 instructions: 90000001 cycles: 49370042 heartbeat IPC: 1.82298 cumulative IPC: 1.82297 (Simulation time: 4 hr 25 min 9 sec) 
 Total Blocks : 262144 Invalid Blocks : 62
Heartbeat CPU 7 instructions: 90000001 cycles: 49370084 heartbeat IPC: 1.82289 cumulative IPC: 1.82297 (Simulation time: 4 hr 25 min 9 sec) 
 Total Blocks : 262144 Invalid Blocks : 62
Heartbeat CPU 2 instructions: 90000001 cycles: 49370637 heartbeat IPC: 1.82281 cumulative IPC: 1.82295 (Simulation time: 4 hr 25 min 9 sec) 
 Total Blocks : 262144 Invalid Blocks : 62
Heartbeat CPU 5 instructions: 90000001 cycles: 49370862 heartbeat IPC: 1.82281 cumulative IPC: 1.82294 (Simulation time: 4 hr 25 min 10 sec) 
 Total Blocks : 262144 Invalid Blocks : 62
Heartbeat CPU 4 instructions: 90000001 cycles: 49371788 heartbeat IPC: 1.82287 cumulative IPC: 1.8229 (Simulation time: 4 hr 25 min 10 sec) 
 Total Blocks : 262144 Invalid Blocks : 62
Heartbeat CPU 0 instructions: 90000001 cycles: 49371827 heartbeat IPC: 1.82284 cumulative IPC: 1.8229 (Simulation time: 4 hr 25 min 10 sec) 
 Total Blocks : 262144 Invalid Blocks : 62
Heartbeat CPU 6 instructions: 90000001 cycles: 49371982 heartbeat IPC: 1.82282 cumulative IPC: 1.8229 (Simulation time: 4 hr 25 min 10 sec) 
 Total Blocks : 262144 Invalid Blocks : 62
Heartbeat CPU 3 instructions: 100000003 cycles: 54855147 heartbeat IPC: 1.82307 cumulative IPC: 1.82298 (Simulation time: 4 hr 54 min 59 sec) 
 Total Blocks : 262144 Invalid Blocks : 18
Heartbeat CPU 1 instructions: 100000003 cycles: 54855190 heartbeat IPC: 1.82311 cumulative IPC: 1.82298 (Simulation time: 4 hr 55 min 0 sec) 
 Total Blocks : 262144 Invalid Blocks : 18
Heartbeat CPU 7 instructions: 100000003 cycles: 54855218 heartbeat IPC: 1.82311 cumulative IPC: 1.82298 (Simulation time: 4 hr 55 min 0 sec) 
 Total Blocks : 262144 Invalid Blocks : 18
Heartbeat CPU 2 instructions: 100000003 cycles: 54855941 heartbeat IPC: 1.82305 cumulative IPC: 1.82296 (Simulation time: 4 hr 55 min 0 sec) 
 Total Blocks : 262144 Invalid Blocks : 18
Heartbeat CPU 5 instructions: 100000003 cycles: 54856169 heartbeat IPC: 1.82305 cumulative IPC: 1.82295 (Simulation time: 4 hr 55 min 0 sec) 
 Total Blocks : 262144 Invalid Blocks : 18
Heartbeat CPU 4 instructions: 100000003 cycles: 54857166 heartbeat IPC: 1.82303 cumulative IPC: 1.82292 (Simulation time: 4 hr 55 min 0 sec) 
 Total Blocks : 262144 Invalid Blocks : 18
Heartbeat CPU 0 instructions: 100000003 cycles: 54857199 heartbeat IPC: 1.82303 cumulative IPC: 1.82291 (Simulation time: 4 hr 55 min 0 sec) 
 Total Blocks : 262144 Invalid Blocks : 18
Heartbeat CPU 6 instructions: 100000003 cycles: 54857233 heartbeat IPC: 1.82307 cumulative IPC: 1.82291 (Simulation time: 4 hr 55 min 0 sec) 
 Total Blocks : 262144 Invalid Blocks : 18
Heartbeat CPU 3 instructions: 110000000 cycles: 60340690 heartbeat IPC: 1.82297 cumulative IPC: 1.82298 (Simulation time: 5 hr 24 min 34 sec) 
 Total Blocks : 262144 Invalid Blocks : 10
Heartbeat CPU 1 instructions: 110000000 cycles: 60340728 heartbeat IPC: 1.82297 cumulative IPC: 1.82298 (Simulation time: 5 hr 24 min 35 sec) 
 Total Blocks : 262144 Invalid Blocks : 10
Heartbeat CPU 7 instructions: 110000000 cycles: 60340849 heartbeat IPC: 1.82294 cumulative IPC: 1.82298 (Simulation time: 5 hr 24 min 35 sec) 
 Total Blocks : 262144 Invalid Blocks : 10
Heartbeat CPU 2 instructions: 110000000 cycles: 60341546 heartbeat IPC: 1.82295 cumulative IPC: 1.82296 (Simulation time: 5 hr 24 min 35 sec) 
 Total Blocks : 262144 Invalid Blocks : 10
Heartbeat CPU 5 instructions: 110000000 cycles: 60341735 heartbeat IPC: 1.82297 cumulative IPC: 1.82295 (Simulation time: 5 hr 24 min 35 sec) 
 Total Blocks : 262144 Invalid Blocks : 10
Heartbeat CPU 4 instructions: 110000000 cycles: 60342808 heartbeat IPC: 1.82294 cumulative IPC: 1.82292 (Simulation time: 5 hr 24 min 35 sec) 
 Total Blocks : 262144 Invalid Blocks : 10
Heartbeat CPU 0 instructions: 110000000 cycles: 60342834 heartbeat IPC: 1.82294 cumulative IPC: 1.82292 (Simulation time: 5 hr 24 min 35 sec) 
 Total Blocks : 262144 Invalid Blocks : 10
Heartbeat CPU 6 instructions: 110000000 cycles: 60342883 heartbeat IPC: 1.82294 cumulative IPC: 1.82292 (Simulation time: 5 hr 24 min 35 sec) 
 Total Blocks : 262144 Invalid Blocks : 10
Heartbeat CPU 3 instructions: 120000000 cycles: 65825809 heartbeat IPC: 1.82311 cumulative IPC: 1.82299 (Simulation time: 5 hr 54 min 47 sec) 
 Total Blocks : 262144 Invalid Blocks : 5
Heartbeat CPU 1 instructions: 120000000 cycles: 65825891 heartbeat IPC: 1.8231 cumulative IPC: 1.82299 (Simulation time: 5 hr 54 min 47 sec) 
 Total Blocks : 262144 Invalid Blocks : 5
Heartbeat CPU 7 instructions: 120000000 cycles: 65825953 heartbeat IPC: 1.82312 cumulative IPC: 1.82299 (Simulation time: 5 hr 54 min 47 sec) 
 Total Blocks : 262144 Invalid Blocks : 5
Heartbeat CPU 2 instructions: 120000000 cycles: 65826757 heartbeat IPC: 1.82308 cumulative IPC: 1.82297 (Simulation time: 5 hr 54 min 47 sec) 
 Total Blocks : 262144 Invalid Blocks : 5
Heartbeat CPU 5 instructions: 120000000 cycles: 65826936 heartbeat IPC: 1.82309 cumulative IPC: 1.82296 (Simulation time: 5 hr 54 min 47 sec) 
 Total Blocks : 262144 Invalid Blocks : 5
Heartbeat CPU 4 instructions: 120000000 cycles: 65828029 heartbeat IPC: 1.82308 cumulative IPC: 1.82293 (Simulation time: 5 hr 54 min 47 sec) 
 Total Blocks : 262144 Invalid Blocks : 5
Heartbeat CPU 0 instructions: 120000000 cycles: 65828068 heartbeat IPC: 1.82308 cumulative IPC: 1.82293 (Simulation time: 5 hr 54 min 47 sec) 
 Total Blocks : 262144 Invalid Blocks : 5
Heartbeat CPU 6 instructions: 120000000 cycles: 65828148 heartbeat IPC: 1.82307 cumulative IPC: 1.82293 (Simulation time: 5 hr 54 min 47 sec) 
 Total Blocks : 262144 Invalid Blocks : 5
Heartbeat CPU 3 instructions: 130000003 cycles: 71311281 heartbeat IPC: 1.823 cumulative IPC: 1.82299 (Simulation time: 6 hr 24 min 46 sec) 
 Total Blocks : 262144 Invalid Blocks : 0
Heartbeat CPU 1 instructions: 130000003 cycles: 71311525 heartbeat IPC: 1.82294 cumulative IPC: 1.82299 (Simulation time: 6 hr 24 min 46 sec) 
 Total Blocks : 262144 Invalid Blocks : 0
Heartbeat CPU 7 instructions: 130000003 cycles: 71311558 heartbeat IPC: 1.82295 cumulative IPC: 1.82299 (Simulation time: 6 hr 24 min 46 sec) 
 Total Blocks : 262144 Invalid Blocks : 0
Heartbeat CPU 2 instructions: 130000003 cycles: 71312442 heartbeat IPC: 1.82293 cumulative IPC: 1.82296 (Simulation time: 6 hr 24 min 46 sec) 
 Total Blocks : 262144 Invalid Blocks : 0
Heartbeat CPU 5 instructions: 130000003 cycles: 71312695 heartbeat IPC: 1.8229 cumulative IPC: 1.82296 (Simulation time: 6 hr 24 min 46 sec) 
 Total Blocks : 262144 Invalid Blocks : 0
Heartbeat CPU 4 instructions: 130000003 cycles: 71313806 heartbeat IPC: 1.8229 cumulative IPC: 1.82293 (Simulation time: 6 hr 24 min 46 sec) 
 Total Blocks : 262144 Invalid Blocks : 0
Heartbeat CPU 0 instructions: 130000003 cycles: 71313851 heartbeat IPC: 1.82289 cumulative IPC: 1.82293 (Simulation time: 6 hr 24 min 46 sec) 
 Total Blocks : 262144 Invalid Blocks : 0
Heartbeat CPU 6 instructions: 130000003 cycles: 71313912 heartbeat IPC: 1.8229 cumulative IPC: 1.82293 (Simulation time: 6 hr 24 min 46 sec) 
 Total Blocks : 262144 Invalid Blocks : 0
Heartbeat CPU 3 instructions: 140000003 cycles: 76797026 heartbeat IPC: 1.82291 cumulative IPC: 1.82299 (Simulation time: 6 hr 53 min 40 sec) 
 Total Blocks : 262144 Invalid Blocks : 0
Heartbeat CPU 1 instructions: 140000003 cycles: 76797188 heartbeat IPC: 1.82293 cumulative IPC: 1.82298 (Simulation time: 6 hr 53 min 40 sec) 
 Total Blocks : 262144 Invalid Blocks : 0
Heartbeat CPU 7 instructions: 140000003 cycles: 76797336 heartbeat IPC: 1.8229 cumulative IPC: 1.82298 (Simulation time: 6 hr 53 min 40 sec) 
 Total Blocks : 262144 Invalid Blocks : 0
Heartbeat CPU 2 instructions: 140000003 cycles: 76798212 heartbeat IPC: 1.8229 cumulative IPC: 1.82296 (Simulation time: 6 hr 53 min 40 sec) 
 Total Blocks : 262144 Invalid Blocks : 0
Heartbeat CPU 5 instructions: 140000003 cycles: 76798429 heartbeat IPC: 1.82291 cumulative IPC: 1.82295 (Simulation time: 6 hr 53 min 41 sec) 
 Total Blocks : 262144 Invalid Blocks : 0
Heartbeat CPU 4 instructions: 140000003 cycles: 76799646 heartbeat IPC: 1.82287 cumulative IPC: 1.82293 (Simulation time: 6 hr 53 min 41 sec) 
 Total Blocks : 262144 Invalid Blocks : 0
Heartbeat CPU 0 instructions: 140000003 cycles: 76799677 heartbeat IPC: 1.82288 cumulative IPC: 1.82292 (Simulation time: 6 hr 53 min 41 sec) 
 Total Blocks : 262144 Invalid Blocks : 0
Heartbeat CPU 6 instructions: 140000003 cycles: 76799750 heartbeat IPC: 1.82288 cumulative IPC: 1.82292 (Simulation time: 6 hr 53 min 41 sec) 
 Total Blocks : 262144 Invalid Blocks : 0
Heartbeat CPU 7 instructions: 150000000 cycles: 82283055 heartbeat IPC: 1.82291 cumulative IPC: 1.82298 (Simulation time: 7 hr 24 min 32 sec) 
 Total Blocks : 262144 Invalid Blocks : 0
Heartbeat CPU 3 instructions: 150000000 cycles: 82283100 heartbeat IPC: 1.8228 cumulative IPC: 1.82297 (Simulation time: 7 hr 24 min 32 sec) 
 Total Blocks : 262144 Invalid Blocks : 0
Heartbeat CPU 1 instructions: 150000000 cycles: 82283151 heartbeat IPC: 1.82283 cumulative IPC: 1.82297 (Simulation time: 7 hr 24 min 33 sec) 
 Total Blocks : 262144 Invalid Blocks : 0
Heartbeat CPU 2 instructions: 150000000 cycles: 82284152 heartbeat IPC: 1.82284 cumulative IPC: 1.82295 (Simulation time: 7 hr 24 min 33 sec) 
 Total Blocks : 262144 Invalid Blocks : 0
Heartbeat CPU 5 instructions: 150000000 cycles: 82284409 heartbeat IPC: 1.82283 cumulative IPC: 1.82295 (Simulation time: 7 hr 24 min 33 sec) 
 Total Blocks : 262144 Invalid Blocks : 0
Heartbeat CPU 4 instructions: 150000000 cycles: 82285664 heartbeat IPC: 1.82282 cumulative IPC: 1.82292 (Simulation time: 7 hr 24 min 34 sec) 
 Total Blocks : 262144 Invalid Blocks : 0
Heartbeat CPU 0 instructions: 150000000 cycles: 82285727 heartbeat IPC: 1.8228 cumulative IPC: 1.82292 (Simulation time: 7 hr 24 min 34 sec) 
 Total Blocks : 262144 Invalid Blocks : 0
Heartbeat CPU 6 instructions: 150000000 cycles: 82285818 heartbeat IPC: 1.8228 cumulative IPC: 1.82291 (Simulation time: 7 hr 24 min 34 sec) 
 Total Blocks : 262144 Invalid Blocks : 0
Heartbeat CPU 1 instructions: 160000002 cycles: 87766790 heartbeat IPC: 1.82361 cumulative IPC: 1.82301 (Simulation time: 7 hr 54 min 19 sec) 
 Total Blocks : 262144 Invalid Blocks : 0
Heartbeat CPU 7 instructions: 160000002 cycles: 87767289 heartbeat IPC: 1.82341 cumulative IPC: 1.823 (Simulation time: 7 hr 54 min 19 sec) 
 Total Blocks : 262144 Invalid Blocks : 0
Heartbeat CPU 3 instructions: 160000002 cycles: 87767708 heartbeat IPC: 1.82328 cumulative IPC: 1.82299 (Simulation time: 7 hr 54 min 19 sec) 
 Total Blocks : 262144 Invalid Blocks : 0
Heartbeat CPU 2 instructions: 160000002 cycles: 87768604 heartbeat IPC: 1.82334 cumulative IPC: 1.82298 (Simulation time: 7 hr 54 min 20 sec) 
 Total Blocks : 262144 Invalid Blocks : 0
Heartbeat CPU 5 instructions: 160000002 cycles: 87769248 heartbeat IPC: 1.82321 cumulative IPC: 1.82296 (Simulation time: 7 hr 54 min 20 sec) 
 Total Blocks : 262144 Invalid Blocks : 0
Heartbeat CPU 4 instructions: 160000002 cycles: 87770224 heartbeat IPC: 1.8233 cumulative IPC: 1.82294 (Simulation time: 7 hr 54 min 20 sec) 
 Total Blocks : 262144 Invalid Blocks : 0
Heartbeat CPU 0 instructions: 160000002 cycles: 87770525 heartbeat IPC: 1.82322 cumulative IPC: 1.82294 (Simulation time: 7 hr 54 min 20 sec) 
 Total Blocks : 262144 Invalid Blocks : 0
Heartbeat CPU 6 instructions: 160000002 cycles: 87770585 heartbeat IPC: 1.82323 cumulative IPC: 1.82293 (Simulation time: 7 hr 54 min 20 sec) 
 Total Blocks : 262144 Invalid Blocks : 0
Heartbeat CPU 1 instructions: 170000001 cycles: 93252546 heartbeat IPC: 1.8229 cumulative IPC: 1.82301 (Simulation time: 8 hr 23 min 26 sec) 
 Total Blocks : 262144 Invalid Blocks : 0
Heartbeat CPU 7 instructions: 170000001 cycles: 93252985 heartbeat IPC: 1.82292 cumulative IPC: 1.823 (Simulation time: 8 hr 23 min 26 sec) 
 Total Blocks : 262144 Invalid Blocks : 0
Heartbeat CPU 3 instructions: 170000001 cycles: 93253457 heartbeat IPC: 1.8229 cumulative IPC: 1.82299 (Simulation time: 8 hr 23 min 26 sec) 
 Total Blocks : 262144 Invalid Blocks : 0
Heartbeat CPU 2 instructions: 170000001 cycles: 93254452 heartbeat IPC: 1.82287 cumulative IPC: 1.82297 (Simulation time: 8 hr 23 min 26 sec) 
 Total Blocks : 262144 Invalid Blocks : 0
Heartbeat CPU 5 instructions: 170000001 cycles: 93254985 heartbeat IPC: 1.82291 cumulative IPC: 1.82296 (Simulation time: 8 hr 23 min 27 sec) 
 Total Blocks : 262144 Invalid Blocks : 0
Heartbeat CPU 4 instructions: 170000001 cycles: 93255993 heartbeat IPC: 1.8229 cumulative IPC: 1.82294 (Simulation time: 8 hr 23 min 27 sec) 
 Total Blocks : 262144 Invalid Blocks : 0
Heartbeat CPU 0 instructions: 170000001 cycles: 93256214 heartbeat IPC: 1.82292 cumulative IPC: 1.82293 (Simulation time: 8 hr 23 min 27 sec) 
 Total Blocks : 262144 Invalid Blocks : 0
Heartbeat CPU 6 instructions: 170000001 cycles: 93256424 heartbeat IPC: 1.82288 cumulative IPC: 1.82293 (Simulation time: 8 hr 23 min 27 sec) 
 Total Blocks : 262144 Invalid Blocks : 0
Heartbeat CPU 1 instructions: 180000000 cycles: 98737982 heartbeat IPC: 1.82301 cumulative IPC: 1.82301 (Simulation time: 8 hr 53 min 8 sec) 
 Total Blocks : 262144 Invalid Blocks : 0
Heartbeat CPU 7 instructions: 180000000 cycles: 98738278 heartbeat IPC: 1.82306 cumulative IPC: 1.823 (Simulation time: 8 hr 53 min 8 sec) 
 Total Blocks : 262144 Invalid Blocks : 0
Heartbeat CPU 3 instructions: 180000000 cycles: 98738997 heartbeat IPC: 1.82297 cumulative IPC: 1.82299 (Simulation time: 8 hr 53 min 9 sec) 
 Total Blocks : 262144 Invalid Blocks : 0
Heartbeat CPU 2 instructions: 180000000 cycles: 98739993 heartbeat IPC: 1.82297 cumulative IPC: 1.82297 (Simulation time: 8 hr 53 min 9 sec) 
 Total Blocks : 262144 Invalid Blocks : 0
Heartbeat CPU 5 instructions: 180000000 cycles: 98740484 heartbeat IPC: 1.82299 cumulative IPC: 1.82296 (Simulation time: 8 hr 53 min 9 sec) 
 Total Blocks : 262144 Invalid Blocks : 0
Heartbeat CPU 4 instructions: 180000000 cycles: 98741525 heartbeat IPC: 1.82298 cumulative IPC: 1.82294 (Simulation time: 8 hr 53 min 9 sec) 
 Total Blocks : 262144 Invalid Blocks : 0
Heartbeat CPU 0 instructions: 180000000 cycles: 98741808 heartbeat IPC: 1.82296 cumulative IPC: 1.82294 (Simulation time: 8 hr 53 min 9 sec) 
 Total Blocks : 262144 Invalid Blocks : 0
Heartbeat CPU 6 instructions: 180000000 cycles: 98742000 heartbeat IPC: 1.82296 cumulative IPC: 1.82293 (Simulation time: 8 hr 53 min 9 sec) 
 Total Blocks : 262144 Invalid Blocks : 0
Heartbeat CPU 1 instructions: 190000002 cycles: 104223867 heartbeat IPC: 1.82286 cumulative IPC: 1.823 (Simulation time: 9 hr 23 min 47 sec) 
 Total Blocks : 262144 Invalid Blocks : 0
Heartbeat CPU 7 instructions: 190000002 cycles: 104223932 heartbeat IPC: 1.82294 cumulative IPC: 1.823 (Simulation time: 9 hr 23 min 47 sec) 
 Total Blocks : 262144 Invalid Blocks : 0
Heartbeat CPU 3 instructions: 190000002 cycles: 104224852 heartbeat IPC: 1.82287 cumulative IPC: 1.82298 (Simulation time: 9 hr 23 min 47 sec) 
 Total Blocks : 262144 Invalid Blocks : 0
Heartbeat CPU 2 instructions: 190000002 cycles: 104225871 heartbeat IPC: 1.82286 cumulative IPC: 1.82296 (Simulation time: 9 hr 23 min 47 sec) 
 Total Blocks : 262144 Invalid Blocks : 0
Heartbeat CPU 5 instructions: 190000002 cycles: 104226279 heartbeat IPC: 1.82289 cumulative IPC: 1.82296 (Simulation time: 9 hr 23 min 47 sec) 
 Total Blocks : 262144 Invalid Blocks : 0
Heartbeat CPU 4 instructions: 190000002 cycles: 104227218 heartbeat IPC: 1.82292 cumulative IPC: 1.82294 (Simulation time: 9 hr 23 min 48 sec) 
 Total Blocks : 262144 Invalid Blocks : 0
Heartbeat CPU 0 instructions: 190000002 cycles: 104227652 heartbeat IPC: 1.82287 cumulative IPC: 1.82293 (Simulation time: 9 hr 23 min 48 sec) 
 Total Blocks : 262144 Invalid Blocks : 0
Heartbeat CPU 6 instructions: 190000002 cycles: 104227825 heartbeat IPC: 1.82288 cumulative IPC: 1.82293 (Simulation time: 9 hr 23 min 48 sec) 
 Total Blocks : 262144 Invalid Blocks : 0
Heartbeat CPU 7 instructions: 200000002 cycles: 109708288 heartbeat IPC: 1.82337 cumulative IPC: 1.82302 (Simulation time: 9 hr 52 min 35 sec) 
 Total Blocks : 262144 Invalid Blocks : 0
Heartbeat CPU 1 instructions: 200000002 cycles: 109709041 heartbeat IPC: 1.8231 cumulative IPC: 1.823 (Simulation time: 9 hr 52 min 35 sec) 
 Total Blocks : 262144 Invalid Blocks : 0
Heartbeat CPU 3 instructions: 200000002 cycles: 109709974 heartbeat IPC: 1.82311 cumulative IPC: 1.82299 (Simulation time: 9 hr 52 min 35 sec) 
 Total Blocks : 262144 Invalid Blocks : 0
Heartbeat CPU 2 instructions: 200000002 cycles: 109710937 heartbeat IPC: 1.82313 cumulative IPC: 1.82297 (Simulation time: 9 hr 52 min 36 sec) 
 Total Blocks : 262144 Invalid Blocks : 0
Heartbeat CPU 5 instructions: 200000002 cycles: 109711448 heartbeat IPC: 1.8231 cumulative IPC: 1.82296 (Simulation time: 9 hr 52 min 36 sec) 
 Total Blocks : 262144 Invalid Blocks : 0
Heartbeat CPU 4 instructions: 200000002 cycles: 109712422 heartbeat IPC: 1.82309 cumulative IPC: 1.82295 (Simulation time: 9 hr 52 min 36 sec) 
 Total Blocks : 262144 Invalid Blocks : 0
Heartbeat CPU 0 instructions: 200000002 cycles: 109712791 heartbeat IPC: 1.82311 cumulative IPC: 1.82294 (Simulation time: 9 hr 52 min 36 sec) 
 Total Blocks : 262144 Invalid Blocks : 0
Heartbeat CPU 6 instructions: 200000002 cycles: 109713012 heartbeat IPC: 1.82309 cumulative IPC: 1.82294 (Simulation time: 9 hr 52 min 36 sec) 
 Total Blocks : 262144 Invalid Blocks : 0

Warmup complete CPU 0 instructions: 200000418 cycles: 109713012 (Simulation time: 9 hr 52 min 36 sec) 
Warmup complete CPU 1 instructions: 200006959 cycles: 109713012 (Simulation time: 9 hr 52 min 36 sec) 
Warmup complete CPU 2 instructions: 200003234 cycles: 109713012 (Simulation time: 9 hr 52 min 36 sec) 
Warmup complete CPU 3 instructions: 200005556 cycles: 109713012 (Simulation time: 9 hr 52 min 36 sec) 
Warmup complete CPU 4 instructions: 200000994 cycles: 109713012 (Simulation time: 9 hr 52 min 36 sec) 
Warmup complete CPU 5 instructions: 200002326 cycles: 109713012 (Simulation time: 9 hr 52 min 36 sec) 
Warmup complete CPU 6 instructions: 200000002 cycles: 109713012 (Simulation time: 9 hr 52 min 36 sec) 
Warmup complete CPU 7 instructions: 200008037 cycles: 109713011 (Simulation time: 9 hr 52 min 36 sec) 

Heartbeat CPU 1 instructions: 210000000 cycles: 118216106 heartbeat IPC: 1.17549 cumulative IPC: 1.17522 (Simulation time: 10 hr 24 min 26 sec) 
 Total Blocks : 262144 Invalid Blocks : 0
Heartbeat CPU 3 instructions: 210000000 cycles: 118219214 heartbeat IPC: 1.17519 cumulative IPC: 1.17496 (Simulation time: 10 hr 24 min 27 sec) 
 Total Blocks : 262144 Invalid Blocks : 0
Heartbeat CPU 5 instructions: 210000000 cycles: 118235078 heartbeat IPC: 1.17321 cumulative IPC: 1.17315 (Simulation time: 10 hr 24 min 32 sec) 
 Total Blocks : 262144 Invalid Blocks : 0
Heartbeat CPU 7 instructions: 210000000 cycles: 118245666 heartbeat IPC: 1.17132 cumulative IPC: 1.17103 (Simulation time: 10 hr 24 min 34 sec) 
 Total Blocks : 262144 Invalid Blocks : 0
Heartbeat CPU 2 instructions: 210000000 cycles: 118247229 heartbeat IPC: 1.17147 cumulative IPC: 1.17137 (Simulation time: 10 hr 24 min 34 sec) 
 Total Blocks : 262144 Invalid Blocks : 0
Heartbeat CPU 0 instructions: 210000000 cycles: 118248813 heartbeat IPC: 1.17151 cumulative IPC: 1.17149 (Simulation time: 10 hr 24 min 34 sec) 
 Total Blocks : 262144 Invalid Blocks : 0
Heartbeat CPU 4 instructions: 210000000 cycles: 118255717 heartbeat IPC: 1.17051 cumulative IPC: 1.17047 (Simulation time: 10 hr 24 min 36 sec) 
 Total Blocks : 262144 Invalid Blocks : 0
Heartbeat CPU 6 instructions: 210000000 cycles: 118258039 heartbeat IPC: 1.17027 cumulative IPC: 1.17027 (Simulation time: 10 hr 24 min 37 sec) 
 Total Blocks : 262144 Invalid Blocks : 0
Heartbeat CPU 1 instructions: 220000000 cycles: 126746384 heartbeat IPC: 1.17229 cumulative IPC: 1.17376 (Simulation time: 10 hr 56 min 4 sec) 
 Total Blocks : 262144 Invalid Blocks : 0
Heartbeat CPU 3 instructions: 220000000 cycles: 126758778 heartbeat IPC: 1.17102 cumulative IPC: 1.17299 (Simulation time: 10 hr 56 min 8 sec) 
 Total Blocks : 262144 Invalid Blocks : 0
Heartbeat CPU 5 instructions: 220000000 cycles: 126759750 heartbeat IPC: 1.17307 cumulative IPC: 1.17311 (Simulation time: 10 hr 56 min 8 sec) 
 Total Blocks : 262144 Invalid Blocks : 0
Heartbeat CPU 7 instructions: 220000000 cycles: 126763442 heartbeat IPC: 1.17402 cumulative IPC: 1.17252 (Simulation time: 10 hr 56 min 9 sec) 
 Total Blocks : 262144 Invalid Blocks : 0
Heartbeat CPU 0 instructions: 220000000 cycles: 126767505 heartbeat IPC: 1.17389 cumulative IPC: 1.17269 (Simulation time: 10 hr 56 min 10 sec) 
 Total Blocks : 262144 Invalid Blocks : 0
Heartbeat CPU 4 instructions: 220000000 cycles: 126780905 heartbeat IPC: 1.17299 cumulative IPC: 1.17173 (Simulation time: 10 hr 56 min 13 sec) 
 Total Blocks : 262144 Invalid Blocks : 0
Heartbeat CPU 2 instructions: 220000000 cycles: 126781309 heartbeat IPC: 1.17177 cumulative IPC: 1.17157 (Simulation time: 10 hr 56 min 13 sec) 
 Total Blocks : 262144 Invalid Blocks : 0
Heartbeat CPU 6 instructions: 220000000 cycles: 126789914 heartbeat IPC: 1.17208 cumulative IPC: 1.17117 (Simulation time: 10 hr 56 min 15 sec) 
 Total Blocks : 262144 Invalid Blocks : 0
Heartbeat CPU 1 instructions: 230000000 cycles: 135242474 heartbeat IPC: 1.17701 cumulative IPC: 1.17484 (Simulation time: 11 hr 26 min 8 sec) 
 Total Blocks : 262144 Invalid Blocks : 0
Heartbeat CPU 5 instructions: 230000000 cycles: 135259435 heartbeat IPC: 1.17651 cumulative IPC: 1.17424 (Simulation time: 11 hr 26 min 11 sec) 
 Total Blocks : 262144 Invalid Blocks : 0
Heartbeat CPU 3 instructions: 230000000 cycles: 135261677 heartbeat IPC: 1.17607 cumulative IPC: 1.17401 (Simulation time: 11 hr 26 min 11 sec) 
 Total Blocks : 262144 Invalid Blocks : 0
Heartbeat CPU 0 instructions: 230000000 cycles: 135270006 heartbeat IPC: 1.17612 cumulative IPC: 1.17383 (Simulation time: 11 hr 26 min 13 sec) 
 Total Blocks : 262144 Invalid Blocks : 0
Heartbeat CPU 7 instructions: 230000000 cycles: 135273239 heartbeat IPC: 1.17512 cumulative IPC: 1.17338 (Simulation time: 11 hr 26 min 14 sec) 
 Total Blocks : 262144 Invalid Blocks : 0
Heartbeat CPU 4 instructions: 230000000 cycles: 135281195 heartbeat IPC: 1.17643 cumulative IPC: 1.17329 (Simulation time: 11 hr 26 min 15 sec) 
 Total Blocks : 262144 Invalid Blocks : 0
Heartbeat CPU 2 instructions: 230000000 cycles: 135286526 heartbeat IPC: 1.17575 cumulative IPC: 1.17296 (Simulation time: 11 hr 26 min 16 sec) 
 Total Blocks : 262144 Invalid Blocks : 0
Heartbeat CPU 6 instructions: 230000000 cycles: 135290370 heartbeat IPC: 1.17641 cumulative IPC: 1.17291 (Simulation time: 11 hr 26 min 17 sec) 
 Total Blocks : 262144 Invalid Blocks : 0
Heartbeat CPU 1 instructions: 240000001 cycles: 143888690 heartbeat IPC: 1.15658 cumulative IPC: 1.17022 (Simulation time: 11 hr 56 min 17 sec) 
 Total Blocks : 262144 Invalid Blocks : 0
Heartbeat CPU 5 instructions: 240000001 cycles: 143921118 heartbeat IPC: 1.15451 cumulative IPC: 1.16925 (Simulation time: 11 hr 56 min 23 sec) 
 Total Blocks : 262144 Invalid Blocks : 0
Heartbeat CPU 3 instructions: 240000001 cycles: 143932332 heartbeat IPC: 1.15332 cumulative IPC: 1.16877 (Simulation time: 11 hr 56 min 25 sec) 
 Total Blocks : 262144 Invalid Blocks : 0
Heartbeat CPU 0 instructions: 240000001 cycles: 143947489 heartbeat IPC: 1.15241 cumulative IPC: 1.1684 (Simulation time: 11 hr 56 min 28 sec) 
 Total Blocks : 262144 Invalid Blocks : 0
Heartbeat CPU 4 instructions: 240000001 cycles: 144000345 heartbeat IPC: 1.1469 cumulative IPC: 1.16658 (Simulation time: 11 hr 56 min 39 sec) 
 Total Blocks : 262144 Invalid Blocks : 0
Heartbeat CPU 7 instructions: 240000001 cycles: 144010997 heartbeat IPC: 1.14446 cumulative IPC: 1.16601 (Simulation time: 11 hr 56 min 41 sec) 
 Total Blocks : 262144 Invalid Blocks : 0
Heartbeat CPU 6 instructions: 240000001 cycles: 144024274 heartbeat IPC: 1.14496 cumulative IPC: 1.1658 (Simulation time: 11 hr 56 min 43 sec) 
 Total Blocks : 262144 Invalid Blocks : 0
Heartbeat CPU 2 instructions: 240000001 cycles: 144026100 heartbeat IPC: 1.14422 cumulative IPC: 1.16564 (Simulation time: 11 hr 56 min 44 sec) 
 Total Blocks : 262144 Invalid Blocks : 0
Heartbeat CPU 1 instructions: 250000003 cycles: 152420665 heartbeat IPC: 1.17206 cumulative IPC: 1.17059 (Simulation time: 12 hr 25 min 40 sec) 
 Total Blocks : 262144 Invalid Blocks : 0
Heartbeat CPU 5 instructions: 250000003 cycles: 152451483 heartbeat IPC: 1.17228 cumulative IPC: 1.16985 (Simulation time: 12 hr 25 min 46 sec) 
 Total Blocks : 262144 Invalid Blocks : 0
Heartbeat CPU 3 instructions: 250000003 cycles: 152454525 heartbeat IPC: 1.17341 cumulative IPC: 1.16969 (Simulation time: 12 hr 25 min 47 sec) 
 Total Blocks : 262144 Invalid Blocks : 0
Heartbeat CPU 0 instructions: 250000003 cycles: 152457384 heartbeat IPC: 1.1751 cumulative IPC: 1.16973 (Simulation time: 12 hr 25 min 47 sec) 
 Total Blocks : 262144 Invalid Blocks : 0
Heartbeat CPU 4 instructions: 250000003 cycles: 152519387 heartbeat IPC: 1.17384 cumulative IPC: 1.16803 (Simulation time: 12 hr 26 min 0 sec) 
 Total Blocks : 262144 Invalid Blocks : 0
Heartbeat CPU 7 instructions: 250000003 cycles: 152544037 heartbeat IPC: 1.17192 cumulative IPC: 1.16719 (Simulation time: 12 hr 26 min 5 sec) 
 Total Blocks : 262144 Invalid Blocks : 0
Heartbeat CPU 6 instructions: 250000003 cycles: 152552789 heartbeat IPC: 1.17254 cumulative IPC: 1.16714 (Simulation time: 12 hr 26 min 7 sec) 
 Total Blocks : 262144 Invalid Blocks : 0
Heartbeat CPU 2 instructions: 250000003 cycles: 152555332 heartbeat IPC: 1.17244 cumulative IPC: 1.16699 (Simulation time: 12 hr 26 min 7 sec) 
 Total Blocks : 262144 Invalid Blocks : 0
Heartbeat CPU 1 instructions: 260000000 cycles: 160924188 heartbeat IPC: 1.17598 cumulative IPC: 1.17148 (Simulation time: 12 hr 54 min 57 sec) 
 Total Blocks : 262144 Invalid Blocks : 0
Heartbeat CPU 5 instructions: 260000000 cycles: 160946522 heartbeat IPC: 1.17716 cumulative IPC: 1.17106 (Simulation time: 12 hr 55 min 1 sec) 
 Total Blocks : 262144 Invalid Blocks : 0
Heartbeat CPU 3 instructions: 260000000 cycles: 160953727 heartbeat IPC: 1.17658 cumulative IPC: 1.17084 (Simulation time: 12 hr 55 min 3 sec) 
 Total Blocks : 262144 Invalid Blocks : 0
Heartbeat CPU 0 instructions: 260000000 cycles: 160959079 heartbeat IPC: 1.17624 cumulative IPC: 1.17081 (Simulation time: 12 hr 55 min 4 sec) 
 Total Blocks : 262144 Invalid Blocks : 0
Heartbeat CPU 4 instructions: 260000000 cycles: 161021814 heartbeat IPC: 1.17613 cumulative IPC: 1.16937 (Simulation time: 12 hr 55 min 16 sec) 
 Total Blocks : 262144 Invalid Blocks : 0
Heartbeat CPU 7 instructions: 260000000 cycles: 161044365 heartbeat IPC: 1.17642 cumulative IPC: 1.16872 (Simulation time: 12 hr 55 min 20 sec) 
 Total Blocks : 262144 Invalid Blocks : 0
Heartbeat CPU 6 instructions: 260000000 cycles: 161050956 heartbeat IPC: 1.17672 cumulative IPC: 1.16873 (Simulation time: 12 hr 55 min 21 sec) 
 Total Blocks : 262144 Invalid Blocks : 0
Heartbeat CPU 2 instructions: 260000000 cycles: 161057834 heartbeat IPC: 1.17612 cumulative IPC: 1.16851 (Simulation time: 12 hr 55 min 23 sec) 
 Total Blocks : 262144 Invalid Blocks : 0
Heartbeat CPU 1 instructions: 270000003 cycles: 169428647 heartbeat IPC: 1.17585 cumulative IPC: 1.17211 (Simulation time: 13 hr 23 min 56 sec) 
 Total Blocks : 262144 Invalid Blocks : 0
Heartbeat CPU 3 instructions: 270000003 cycles: 169460059 heartbeat IPC: 1.1756 cumulative IPC: 1.17151 (Simulation time: 13 hr 24 min 2 sec) 
 Total Blocks : 262144 Invalid Blocks : 0
Heartbeat CPU 5 instructions: 270000003 cycles: 169463578 heartbeat IPC: 1.17411 cumulative IPC: 1.1715 (Simulation time: 13 hr 24 min 2 sec) 
 Total Blocks : 262144 Invalid Blocks : 0
Heartbeat CPU 0 instructions: 270000003 cycles: 169471761 heartbeat IPC: 1.17472 cumulative IPC: 1.17137 (Simulation time: 13 hr 24 min 4 sec) 
 Total Blocks : 262144 Invalid Blocks : 0
Heartbeat CPU 4 instructions: 270000003 cycles: 169528098 heartbeat IPC: 1.1756 cumulative IPC: 1.17026 (Simulation time: 13 hr 24 min 14 sec) 
 Total Blocks : 262144 Invalid Blocks : 0
Heartbeat CPU 7 instructions: 270000003 cycles: 169557388 heartbeat IPC: 1.17467 cumulative IPC: 1.16957 (Simulation time: 13 hr 24 min 19 sec) 
 Total Blocks : 262144 Invalid Blocks : 0
Heartbeat CPU 6 instructions: 270000003 cycles: 169563704 heartbeat IPC: 1.17471 cumulative IPC: 1.16958 (Simulation time: 13 hr 24 min 21 sec) 
 Total Blocks : 262144 Invalid Blocks : 0
Heartbeat CPU 2 instructions: 270000003 cycles: 169565352 heartbeat IPC: 1.17543 cumulative IPC: 1.16949 (Simulation time: 13 hr 24 min 21 sec) 
 Total Blocks : 262144 Invalid Blocks : 0
Heartbeat CPU 1 instructions: 280000001 cycles: 177941964 heartbeat IPC: 1.17463 cumulative IPC: 1.17242 (Simulation time: 13 hr 51 min 22 sec) 
 Total Blocks : 262144 Invalid Blocks : 0
Heartbeat CPU 3 instructions: 280000001 cycles: 177977743 heartbeat IPC: 1.17403 cumulative IPC: 1.17183 (Simulation time: 13 hr 51 min 28 sec) 
 Total Blocks : 262144 Invalid Blocks : 0
Heartbeat CPU 0 instructions: 280000001 cycles: 177980526 heartbeat IPC: 1.17526 cumulative IPC: 1.17185 (Simulation time: 13 hr 51 min 29 sec) 
 Total Blocks : 262144 Invalid Blocks : 0
Heartbeat CPU 5 instructions: 280000001 cycles: 177987681 heartbeat IPC: 1.17314 cumulative IPC: 1.1717 (Simulation time: 13 hr 51 min 30 sec) 
 Total Blocks : 262144 Invalid Blocks : 0
Heartbeat CPU 4 instructions: 280000001 cycles: 178036708 heartbeat IPC: 1.17528 cumulative IPC: 1.17088 (Simulation time: 13 hr 51 min 40 sec) 
 Total Blocks : 262144 Invalid Blocks : 0
Heartbeat CPU 7 instructions: 280000001 cycles: 178068563 heartbeat IPC: 1.17493 cumulative IPC: 1.17023 (Simulation time: 13 hr 51 min 46 sec) 
 Total Blocks : 262144 Invalid Blocks : 0
Heartbeat CPU 6 instructions: 280000001 cycles: 178075363 heartbeat IPC: 1.17486 cumulative IPC: 1.17023 (Simulation time: 13 hr 51 min 48 sec) 
 Total Blocks : 262144 Invalid Blocks : 0
Heartbeat CPU 2 instructions: 280000001 cycles: 178080144 heartbeat IPC: 1.17443 cumulative IPC: 1.17011 (Simulation time: 13 hr 51 min 49 sec) 
 Total Blocks : 262144 Invalid Blocks : 0
Heartbeat CPU 1 instructions: 290000001 cycles: 186455284 heartbeat IPC: 1.17463 cumulative IPC: 1.17267 (Simulation time: 14 hr 18 min 58 sec) 
 Total Blocks : 262144 Invalid Blocks : 0
Heartbeat CPU 3 instructions: 290000001 cycles: 186486310 heartbeat IPC: 1.17529 cumulative IPC: 1.17221 (Simulation time: 14 hr 19 min 4 sec) 
 Total Blocks : 262144 Invalid Blocks : 0
Heartbeat CPU 0 instructions: 290000001 cycles: 186490526 heartbeat IPC: 1.17509 cumulative IPC: 1.17221 (Simulation time: 14 hr 19 min 5 sec) 
 Total Blocks : 262144 Invalid Blocks : 0
Heartbeat CPU 5 instructions: 290000001 cycles: 186497119 heartbeat IPC: 1.17517 cumulative IPC: 1.17209 (Simulation time: 14 hr 19 min 6 sec) 
 Total Blocks : 262144 Invalid Blocks : 0
Heartbeat CPU 4 instructions: 290000001 cycles: 186548197 heartbeat IPC: 1.17488 cumulative IPC: 1.17133 (Simulation time: 14 hr 19 min 16 sec) 
 Total Blocks : 262144 Invalid Blocks : 0
Heartbeat CPU 6 instructions: 290000001 cycles: 186579962 heartbeat IPC: 1.17583 cumulative IPC: 1.17085 (Simulation time: 14 hr 19 min 23 sec) 
 Total Blocks : 262144 Invalid Blocks : 0
Heartbeat CPU 7 instructions: 290000001 cycles: 186591325 heartbeat IPC: 1.17333 cumulative IPC: 1.17058 (Simulation time: 14 hr 19 min 25 sec) 
 Total Blocks : 262144 Invalid Blocks : 0
Heartbeat CPU 2 instructions: 290000001 cycles: 186595044 heartbeat IPC: 1.17441 cumulative IPC: 1.17058 (Simulation time: 14 hr 19 min 26 sec) 
 Total Blocks : 262144 Invalid Blocks : 0
Heartbeat CPU 1 instructions: 300000001 cycles: 194952854 heartbeat IPC: 1.17681 cumulative IPC: 1.17308 (Simulation time: 14 hr 46 min 40 sec) 
 Total Blocks : 262144 Invalid Blocks : 0
Heartbeat CPU 3 instructions: 300000001 cycles: 194985697 heartbeat IPC: 1.17656 cumulative IPC: 1.17264 (Simulation time: 14 hr 46 min 46 sec) 
 Total Blocks : 262144 Invalid Blocks : 0
Heartbeat CPU 0 instructions: 300000001 cycles: 194996495 heartbeat IPC: 1.17564 cumulative IPC: 1.17256 (Simulation time: 14 hr 46 min 48 sec) 
 Total Blocks : 262144 Invalid Blocks : 0
Heartbeat CPU 5 instructions: 300000001 cycles: 195010415 heartbeat IPC: 1.17463 cumulative IPC: 1.17234 (Simulation time: 14 hr 46 min 51 sec) 
 Total Blocks : 262144 Invalid Blocks : 0
Heartbeat CPU 4 instructions: 300000001 cycles: 195050148 heartbeat IPC: 1.1762 cumulative IPC: 1.17181 (Simulation time: 14 hr 46 min 58 sec) 
 Total Blocks : 262144 Invalid Blocks : 0
Heartbeat CPU 6 instructions: 300000001 cycles: 195092138 heartbeat IPC: 1.17479 cumulative IPC: 1.17125 (Simulation time: 14 hr 47 min 5 sec) 
 Total Blocks : 262144 Invalid Blocks : 0
Heartbeat CPU 7 instructions: 300000001 cycles: 195112891 heartbeat IPC: 1.17349 cumulative IPC: 1.17087 (Simulation time: 14 hr 47 min 9 sec) 
 Total Blocks : 262144 Invalid Blocks : 0
Heartbeat CPU 2 instructions: 300000001 cycles: 195115154 heartbeat IPC: 1.17369 cumulative IPC: 1.17089 (Simulation time: 14 hr 47 min 10 sec) 
 Total Blocks : 262144 Invalid Blocks : 0
Heartbeat CPU 1 instructions: 310000000 cycles: 203496475 heartbeat IPC: 1.17046 cumulative IPC: 1.17284 (Simulation time: 15 hr 14 min 45 sec) 
 Total Blocks : 262144 Invalid Blocks : 0
Heartbeat CPU 0 instructions: 310000000 cycles: 203522798 heartbeat IPC: 1.17284 cumulative IPC: 1.17258 (Simulation time: 15 hr 14 min 51 sec) 
 Total Blocks : 262144 Invalid Blocks : 0
Heartbeat CPU 3 instructions: 310000000 cycles: 203524073 heartbeat IPC: 1.17118 cumulative IPC: 1.17251 (Simulation time: 15 hr 14 min 51 sec) 
 Total Blocks : 262144 Invalid Blocks : 0
Heartbeat CPU 5 instructions: 310000000 cycles: 203525914 heartbeat IPC: 1.17433 cumulative IPC: 1.17252 (Simulation time: 15 hr 14 min 51 sec) 
 Total Blocks : 262144 Invalid Blocks : 0
Heartbeat CPU 4 instructions: 310000000 cycles: 203583493 heartbeat IPC: 1.17187 cumulative IPC: 1.17182 (Simulation time: 15 hr 15 min 3 sec) 
 Total Blocks : 262144 Invalid Blocks : 0
Heartbeat CPU 6 instructions: 310000000 cycles: 203606872 heartbeat IPC: 1.17443 cumulative IPC: 1.17154 (Simulation time: 15 hr 15 min 7 sec) 
 Total Blocks : 262144 Invalid Blocks : 0
Heartbeat CPU 2 instructions: 310000000 cycles: 203638041 heartbeat IPC: 1.17331 cumulative IPC: 1.17111 (Simulation time: 15 hr 15 min 14 sec) 
 Total Blocks : 262144 Invalid Blocks : 0
Heartbeat CPU 7 instructions: 310000000 cycles: 203689058 heartbeat IPC: 1.16602 cumulative IPC: 1.17043 (Simulation time: 15 hr 15 min 24 sec) 
 Total Blocks : 262144 Invalid Blocks : 0
Heartbeat CPU 1 instructions: 320000000 cycles: 212003900 heartbeat IPC: 1.17544 cumulative IPC: 1.17306 (Simulation time: 15 hr 41 min 43 sec) 
 Total Blocks : 262144 Invalid Blocks : 0
Heartbeat CPU 0 instructions: 320000000 cycles: 212028656 heartbeat IPC: 1.17566 cumulative IPC: 1.17284 (Simulation time: 15 hr 41 min 47 sec) 
 Total Blocks : 262144 Invalid Blocks : 0
Heartbeat CPU 3 instructions: 320000000 cycles: 212043781 heartbeat IPC: 1.17375 cumulative IPC: 1.17261 (Simulation time: 15 hr 41 min 50 sec) 
 Total Blocks : 262144 Invalid Blocks : 0
Heartbeat CPU 5 instructions: 320000000 cycles: 212046758 heartbeat IPC: 1.17359 cumulative IPC: 1.17261 (Simulation time: 15 hr 41 min 51 sec) 
 Total Blocks : 262144 Invalid Blocks : 0
Heartbeat CPU 4 instructions: 320000000 cycles: 212100412 heartbeat IPC: 1.17413 cumulative IPC: 1.17201 (Simulation time: 15 hr 42 min 1 sec) 
 Total Blocks : 262144 Invalid Blocks : 0
Heartbeat CPU 6 instructions: 320000000 cycles: 212131917 heartbeat IPC: 1.17301 cumulative IPC: 1.17166 (Simulation time: 15 hr 42 min 6 sec) 
 Total Blocks : 262144 Invalid Blocks : 0
Heartbeat CPU 2 instructions: 320000000 cycles: 212139690 heartbeat IPC: 1.17624 cumulative IPC: 1.17154 (Simulation time: 15 hr 42 min 8 sec) 
 Total Blocks : 262144 Invalid Blocks : 0
Heartbeat CPU 7 instructions: 320000000 cycles: 212202558 heartbeat IPC: 1.17461 cumulative IPC: 1.17077 (Simulation time: 15 hr 42 min 24 sec) 
 Total Blocks : 262144 Invalid Blocks : 0
Heartbeat CPU 1 instructions: 330000000 cycles: 220508407 heartbeat IPC: 1.17585 cumulative IPC: 1.17327 (Simulation time: 16 hr 9 min 21 sec) 
 Total Blocks : 262144 Invalid Blocks : 0
Heartbeat CPU 0 instructions: 330000000 cycles: 220539641 heartbeat IPC: 1.17495 cumulative IPC: 1.173 (Simulation time: 16 hr 9 min 27 sec) 
 Total Blocks : 262144 Invalid Blocks : 0
Heartbeat CPU 3 instructions: 330000000 cycles: 220550567 heartbeat IPC: 1.17553 cumulative IPC: 1.17284 (Simulation time: 16 hr 9 min 30 sec) 
 Total Blocks : 262144 Invalid Blocks : 0
Heartbeat CPU 5 instructions: 330000000 cycles: 220562044 heartbeat IPC: 1.17436 cumulative IPC: 1.17275 (Simulation time: 16 hr 9 min 32 sec) 
 Total Blocks : 262144 Invalid Blocks : 0
Heartbeat CPU 4 instructions: 330000000 cycles: 220611377 heartbeat IPC: 1.17495 cumulative IPC: 1.17224 (Simulation time: 16 hr 9 min 42 sec) 
 Total Blocks : 262144 Invalid Blocks : 0
Heartbeat CPU 6 instructions: 330000000 cycles: 220653631 heartbeat IPC: 1.17347 cumulative IPC: 1.1718 (Simulation time: 16 hr 9 min 50 sec) 
 Total Blocks : 262144 Invalid Blocks : 0
Heartbeat CPU 2 instructions: 330000000 cycles: 220657697 heartbeat IPC: 1.17398 cumulative IPC: 1.17173 (Simulation time: 16 hr 9 min 51 sec) 
 Total Blocks : 262144 Invalid Blocks : 0
Heartbeat CPU 7 instructions: 330000000 cycles: 220733546 heartbeat IPC: 1.1722 cumulative IPC: 1.17088 (Simulation time: 16 hr 10 min 6 sec) 
 Total Blocks : 262144 Invalid Blocks : 0
Heartbeat CPU 1 instructions: 340000003 cycles: 229008072 heartbeat IPC: 1.17652 cumulative IPC: 1.1735 (Simulation time: 16 hr 37 min 26 sec) 
 Total Blocks : 262144 Invalid Blocks : 0
Heartbeat CPU 0 instructions: 340000003 cycles: 229038391 heartbeat IPC: 1.17664 cumulative IPC: 1.17326 (Simulation time: 16 hr 37 min 32 sec) 
 Total Blocks : 262144 Invalid Blocks : 0
Heartbeat CPU 3 instructions: 340000003 cycles: 229051306 heartbeat IPC: 1.17637 cumulative IPC: 1.17309 (Simulation time: 16 hr 37 min 34 sec) 
 Total Blocks : 262144 Invalid Blocks : 0
Heartbeat CPU 5 instructions: 340000003 cycles: 229057640 heartbeat IPC: 1.17708 cumulative IPC: 1.17305 (Simulation time: 16 hr 37 min 35 sec) 
 Total Blocks : 262144 Invalid Blocks : 0
Heartbeat CPU 4 instructions: 340000003 cycles: 229113036 heartbeat IPC: 1.17624 cumulative IPC: 1.17252 (Simulation time: 16 hr 37 min 45 sec) 
 Total Blocks : 262144 Invalid Blocks : 0
Heartbeat CPU 6 instructions: 340000003 cycles: 229150902 heartbeat IPC: 1.17685 cumulative IPC: 1.17216 (Simulation time: 16 hr 37 min 52 sec) 
 Total Blocks : 262144 Invalid Blocks : 0
Heartbeat CPU 2 instructions: 340000003 cycles: 229160605 heartbeat IPC: 1.17607 cumulative IPC: 1.17204 (Simulation time: 16 hr 37 min 54 sec) 
 Total Blocks : 262144 Invalid Blocks : 0
Heartbeat CPU 7 instructions: 340000003 cycles: 229245782 heartbeat IPC: 1.17478 cumulative IPC: 1.17116 (Simulation time: 16 hr 38 min 10 sec) 
 Total Blocks : 262144 Invalid Blocks : 0
Heartbeat CPU 1 instructions: 350000002 cycles: 237516272 heartbeat IPC: 1.17534 cumulative IPC: 1.17362 (Simulation time: 17 hr 4 min 55 sec) 
 Total Blocks : 262144 Invalid Blocks : 0
Heartbeat CPU 0 instructions: 350000002 cycles: 237546690 heartbeat IPC: 1.17532 cumulative IPC: 1.1734 (Simulation time: 17 hr 5 min 1 sec) 
 Total Blocks : 262144 Invalid Blocks : 0
Heartbeat CPU 3 instructions: 350000002 cycles: 237555811 heartbeat IPC: 1.17585 cumulative IPC: 1.17327 (Simulation time: 17 hr 5 min 3 sec) 
 Total Blocks : 262144 Invalid Blocks : 0
Heartbeat CPU 5 instructions: 350000002 cycles: 237572296 heartbeat IPC: 1.17445 cumulative IPC: 1.17315 (Simulation time: 17 hr 5 min 6 sec) 
 Total Blocks : 262144 Invalid Blocks : 0
Heartbeat CPU 4 instructions: 350000002 cycles: 237613279 heartbeat IPC: 1.17644 cumulative IPC: 1.17278 (Simulation time: 17 hr 5 min 17 sec) 
 Total Blocks : 262144 Invalid Blocks : 0
Heartbeat CPU 6 instructions: 350000002 cycles: 237655175 heartbeat IPC: 1.17588 cumulative IPC: 1.1724 (Simulation time: 17 hr 5 min 30 sec) 
 Total Blocks : 262144 Invalid Blocks : 0
Heartbeat CPU 2 instructions: 350000002 cycles: 237669781 heartbeat IPC: 1.1752 cumulative IPC: 1.17225 (Simulation time: 17 hr 5 min 35 sec) 
 Total Blocks : 262144 Invalid Blocks : 0
Heartbeat CPU 7 instructions: 350000002 cycles: 237753710 heartbeat IPC: 1.17537 cumulative IPC: 1.17144 (Simulation time: 17 hr 5 min 57 sec) 
 Total Blocks : 262144 Invalid Blocks : 0
Heartbeat CPU 1 instructions: 360000001 cycles: 246023501 heartbeat IPC: 1.17547 cumulative IPC: 1.17374 (Simulation time: 17 hr 32 min 11 sec) 
 Total Blocks : 262144 Invalid Blocks : 0
Heartbeat CPU 0 instructions: 360000001 cycles: 246063705 heartbeat IPC: 1.17412 cumulative IPC: 1.17344 (Simulation time: 17 hr 32 min 19 sec) 
 Total Blocks : 262144 Invalid Blocks : 0
Heartbeat CPU 3 instructions: 360000001 cycles: 246066118 heartbeat IPC: 1.17505 cumulative IPC: 1.17338 (Simulation time: 17 hr 32 min 19 sec) 
 Total Blocks : 262144 Invalid Blocks : 0
Heartbeat CPU 5 instructions: 360000001 cycles: 246079943 heartbeat IPC: 1.17541 cumulative IPC: 1.17329 (Simulation time: 17 hr 32 min 22 sec) 
 Total Blocks : 262144 Invalid Blocks : 0
Heartbeat CPU 4 instructions: 360000001 cycles: 246128245 heartbeat IPC: 1.1744 cumulative IPC: 1.17288 (Simulation time: 17 hr 32 min 31 sec) 
 Total Blocks : 262144 Invalid Blocks : 0
Heartbeat CPU 6 instructions: 360000001 cycles: 246159516 heartbeat IPC: 1.17587 cumulative IPC: 1.17262 (Simulation time: 17 hr 32 min 37 sec) 
 Total Blocks : 262144 Invalid Blocks : 0
Heartbeat CPU 2 instructions: 360000001 cycles: 246180601 heartbeat IPC: 1.17497 cumulative IPC: 1.17242 (Simulation time: 17 hr 32 min 41 sec) 
 Total Blocks : 262144 Invalid Blocks : 0
Heartbeat CPU 7 instructions: 360000001 cycles: 246265425 heartbeat IPC: 1.17485 cumulative IPC: 1.17165 (Simulation time: 17 hr 32 min 56 sec) 
 Total Blocks : 262144 Invalid Blocks : 0
Heartbeat CPU 1 instructions: 370000001 cycles: 254516698 heartbeat IPC: 1.17741 cumulative IPC: 1.17396 (Simulation time: 18 hr 0 min 19 sec) 
 Total Blocks : 262144 Invalid Blocks : 0
Heartbeat CPU 0 instructions: 370000001 cycles: 254558945 heartbeat IPC: 1.17713 cumulative IPC: 1.17366 (Simulation time: 18 hr 0 min 27 sec) 
 Total Blocks : 262144 Invalid Blocks : 0
Heartbeat CPU 3 instructions: 370000001 cycles: 254566769 heartbeat IPC: 1.17638 cumulative IPC: 1.17356 (Simulation time: 18 hr 0 min 29 sec) 
 Total Blocks : 262144 Invalid Blocks : 0
Heartbeat CPU 5 instructions: 370000001 cycles: 254570914 heartbeat IPC: 1.17772 cumulative IPC: 1.17355 (Simulation time: 18 hr 0 min 30 sec) 
 Total Blocks : 262144 Invalid Blocks : 0
Heartbeat CPU 4 instructions: 370000001 cycles: 254629553 heartbeat IPC: 1.17629 cumulative IPC: 1.17308 (Simulation time: 18 hr 0 min 41 sec) 
 Total Blocks : 262144 Invalid Blocks : 0
Heartbeat CPU 6 instructions: 370000001 cycles: 254655684 heartbeat IPC: 1.177 cumulative IPC: 1.17288 (Simulation time: 18 hr 0 min 46 sec) 
 Total Blocks : 262144 Invalid Blocks : 0
Heartbeat CPU 2 instructions: 370000001 cycles: 254669658 heartbeat IPC: 1.17799 cumulative IPC: 1.17274 (Simulation time: 18 hr 0 min 48 sec) 
 Total Blocks : 262144 Invalid Blocks : 0
Heartbeat CPU 7 instructions: 370000001 cycles: 254759013 heartbeat IPC: 1.17736 cumulative IPC: 1.17199 (Simulation time: 18 hr 1 min 4 sec) 
 Total Blocks : 262144 Invalid Blocks : 0
Heartbeat CPU 1 instructions: 380000001 cycles: 263023016 heartbeat IPC: 1.1756 cumulative IPC: 1.17405 (Simulation time: 18 hr 27 min 55 sec) 
 Total Blocks : 262144 Invalid Blocks : 0
Heartbeat CPU 0 instructions: 380000001 cycles: 263069133 heartbeat IPC: 1.17506 cumulative IPC: 1.17374 (Simulation time: 18 hr 28 min 6 sec) 
 Total Blocks : 262144 Invalid Blocks : 0
Heartbeat CPU 3 instructions: 380000001 cycles: 263083796 heartbeat IPC: 1.17412 cumulative IPC: 1.17359 (Simulation time: 18 hr 28 min 9 sec) 
 Total Blocks : 262144 Invalid Blocks : 0
Heartbeat CPU 5 instructions: 380000001 cycles: 263086002 heartbeat IPC: 1.17439 cumulative IPC: 1.17359 (Simulation time: 18 hr 28 min 9 sec) 
 Total Blocks : 262144 Invalid Blocks : 0
Heartbeat CPU 4 instructions: 380000001 cycles: 263134863 heartbeat IPC: 1.17574 cumulative IPC: 1.17323 (Simulation time: 18 hr 28 min 26 sec) 
 Total Blocks : 262144 Invalid Blocks : 0
Heartbeat CPU 6 instructions: 380000001 cycles: 263168232 heartbeat IPC: 1.17474 cumulative IPC: 1.17298 (Simulation time: 18 hr 28 min 35 sec) 
 Total Blocks : 262144 Invalid Blocks : 0
Heartbeat CPU 2 instructions: 380000001 cycles: 263180975 heartbeat IPC: 1.17491 cumulative IPC: 1.17286 (Simulation time: 18 hr 28 min 37 sec) 
 Total Blocks : 262144 Invalid Blocks : 0
Heartbeat CPU 7 instructions: 380000001 cycles: 263275233 heartbeat IPC: 1.17423 cumulative IPC: 1.17211 (Simulation time: 18 hr 28 min 59 sec) 
 Total Blocks : 262144 Invalid Blocks : 0
Heartbeat CPU 1 instructions: 390000003 cycles: 271629987 heartbeat IPC: 1.16185 cumulative IPC: 1.1734 (Simulation time: 18 hr 56 min 29 sec) 
 Total Blocks : 262144 Invalid Blocks : 0
Heartbeat CPU 0 instructions: 390000003 cycles: 271698119 heartbeat IPC: 1.15889 cumulative IPC: 1.17294 (Simulation time: 18 hr 56 min 42 sec) 
 Total Blocks : 262144 Invalid Blocks : 0
Heartbeat CPU 3 instructions: 390000003 cycles: 271726651 heartbeat IPC: 1.15703 cumulative IPC: 1.17271 (Simulation time: 18 hr 56 min 47 sec) 
 Total Blocks : 262144 Invalid Blocks : 0
Heartbeat CPU 5 instructions: 390000003 cycles: 271735773 heartbeat IPC: 1.1561 cumulative IPC: 1.17266 (Simulation time: 18 hr 56 min 48 sec) 
 Total Blocks : 262144 Invalid Blocks : 0
Heartbeat CPU 4 instructions: 390000003 cycles: 271791651 heartbeat IPC: 1.15516 cumulative IPC: 1.17226 (Simulation time: 18 hr 56 min 59 sec) 
 Total Blocks : 262144 Invalid Blocks : 0
Heartbeat CPU 6 instructions: 390000003 cycles: 271817099 heartbeat IPC: 1.15622 cumulative IPC: 1.17209 (Simulation time: 18 hr 57 min 4 sec) 
 Total Blocks : 262144 Invalid Blocks : 0
Heartbeat CPU 2 instructions: 390000003 cycles: 271841283 heartbeat IPC: 1.15469 cumulative IPC: 1.17189 (Simulation time: 18 hr 57 min 8 sec) 
 Total Blocks : 262144 Invalid Blocks : 0
Heartbeat CPU 7 instructions: 390000003 cycles: 271914094 heartbeat IPC: 1.15756 cumulative IPC: 1.17134 (Simulation time: 18 hr 57 min 24 sec) 
 Total Blocks : 262144 Invalid Blocks : 0
Heartbeat CPU 1 instructions: 400000000 cycles: 280159856 heartbeat IPC: 1.17235 cumulative IPC: 1.17335 (Simulation time: 19 hr 23 min 40 sec) 
 Total Blocks : 262144 Invalid Blocks : 0
Finished CPU 1 instructions: 200000001 cycles: 170452381 cumulative IPC: 1.17335 (Simulation time: 19 hr 23 min 41 sec) 
Heartbeat CPU 0 instructions: 400000000 cycles: 280215302 heartbeat IPC: 1.1741 cumulative IPC: 1.173 (Simulation time: 19 hr 23 min 49 sec) 
 Total Blocks : 262144 Invalid Blocks : 0
Finished CPU 0 instructions: 200000000 cycles: 170502734 cumulative IPC: 1.173 (Simulation time: 19 hr 23 min 49 sec) 
Heartbeat CPU 3 instructions: 400000000 cycles: 280237128 heartbeat IPC: 1.17502 cumulative IPC: 1.17282 (Simulation time: 19 hr 23 min 53 sec) 
 Total Blocks : 262144 Invalid Blocks : 0
Finished CPU 3 instructions: 200000002 cycles: 170528603 cumulative IPC: 1.17282 (Simulation time: 19 hr 23 min 54 sec) 
Heartbeat CPU 5 instructions: 400000000 cycles: 280256672 heartbeat IPC: 1.17358 cumulative IPC: 1.17271 (Simulation time: 19 hr 23 min 57 sec) 
 Total Blocks : 262144 Invalid Blocks : 0
Finished CPU 5 instructions: 200000002 cycles: 170545360 cumulative IPC: 1.17271 (Simulation time: 19 hr 23 min 57 sec) 
Heartbeat CPU 4 instructions: 400000000 cycles: 280318458 heartbeat IPC: 1.17277 cumulative IPC: 1.17229 (Simulation time: 19 hr 24 min 8 sec) 
 Total Blocks : 262144 Invalid Blocks : 0
Finished CPU 4 instructions: 200000002 cycles: 170606218 cumulative IPC: 1.17229 (Simulation time: 19 hr 24 min 8 sec) 
Heartbeat CPU 6 instructions: 400000000 cycles: 280333029 heartbeat IPC: 1.17427 cumulative IPC: 1.1722 (Simulation time: 19 hr 24 min 11 sec) 
 Total Blocks : 262144 Invalid Blocks : 0
Finished CPU 6 instructions: 200000002 cycles: 170620018 cumulative IPC: 1.1722 (Simulation time: 19 hr 24 min 11 sec) 
Heartbeat CPU 2 instructions: 400000000 cycles: 280371608 heartbeat IPC: 1.17229 cumulative IPC: 1.17191 (Simulation time: 19 hr 24 min 18 sec) 
 Total Blocks : 262144 Invalid Blocks : 0
Finished CPU 2 instructions: 200000000 cycles: 170661256 cumulative IPC: 1.17191 (Simulation time: 19 hr 24 min 18 sec) 
Heartbeat CPU 7 instructions: 400000000 cycles: 280427049 heartbeat IPC: 1.17468 cumulative IPC: 1.1715 (Simulation time: 19 hr 24 min 28 sec) 
 Total Blocks : 262144 Invalid Blocks : 0
Finished CPU 7 instructions: 200000000 cycles: 170720466 cumulative IPC: 1.17151 (Simulation time: 19 hr 24 min 30 sec) 

CPU 0 Branch Prediction Accuracy: 99.9834% MPKI: 0.00111357 Average ROB Occupancy at Mispredict: 345.448

CPU 1 Branch Prediction Accuracy: 99.9835% MPKI: 0.0011132 Average ROB Occupancy at Mispredict: 345.448

CPU 2 Branch Prediction Accuracy: 99.9835% MPKI: 0.00110958 Average ROB Occupancy at Mispredict: 345.432

CPU 3 Branch Prediction Accuracy: 99.9834% MPKI: 0.00111372 Average ROB Occupancy at Mispredict: 345.448

CPU 4 Branch Prediction Accuracy: 99.9835% MPKI: 0.00110924 Average ROB Occupancy at Mispredict: 345.432

CPU 5 Branch Prediction Accuracy: 99.9834% MPKI: 0.00111384 Average ROB Occupancy at Mispredict: 345.448

CPU 6 Branch Prediction Accuracy: 99.9835% MPKI: 0.00110933 Average ROB Occupancy at Mispredict: 345.432

CPU 7 Branch Prediction Accuracy: 99.9835% MPKI: 0.00110996 Average ROB Occupancy at Mispredict: 345.432

ChampSim completed all CPUs

Total Simulation Statistics (not including warmup)

CPU 0 cumulative IPC: 1.17301 instructions: 200256671 cycles: 170720465
ITLB TOTAL     ACCESS: 39160678  HIT: 39160678  MISS:     0  HIT %:   100  MISS %:     0  AVERAGE MISS PENALTY: 0
ITLB LOAD      ACCESS: 39160678  HIT: 39160678  MISS:     0  HIT %:   100  MISS %:     0  AVERAGE MISS PENALTY: 0
ITLB RFO       ACCESS:     0  HIT:     0  MISS:     0  HIT %:     0  MISS %:     0  AVERAGE MISS PENALTY: 0
ITLB PREFETCH  ACCESS:     0  HIT:     0  MISS:     0  HIT %:     0  MISS %:     0  AVERAGE MISS PENALTY: 0
ITLB WRITEBACK ACCESS:     0  HIT:     0  MISS:     0  HIT %:     0  MISS %:     0  AVERAGE MISS PENALTY: 0

DTLB TOTAL     ACCESS: 53761456  HIT: 46028419  MISS: 7733037  HIT %: 85.616  MISS %: 14.384  AVERAGE MISS PENALTY: 9.78972
DTLB LOAD      ACCESS: 45301601  HIT: 38478848  MISS: 6822753  HIT %: 84.9393  MISS %: 15.0607  AVERAGE MISS PENALTY: 9.62502
DTLB RFO       ACCESS: 8459855  HIT: 7549571  MISS: 910284  HIT %: 89.24  MISS %: 10.76  AVERAGE MISS PENALTY: 11.0242
DTLB PREFETCH  ACCESS:     0  HIT:     0  MISS:     0  HIT %:     0  MISS %:     0  AVERAGE MISS PENALTY: 0
DTLB WRITEBACK ACCESS:     0  HIT:     0  MISS:     0  HIT %:     0  MISS %:     0  AVERAGE MISS PENALTY: 0

STLB TOTAL     ACCESS: 7733038  HIT: 7724510  MISS:  8528  HIT %: 99.8897  MISS %: 0.11028  AVERAGE MISS PENALTY: 100
STLB LOAD      ACCESS: 6822754  HIT: 6816126  MISS:  6628  HIT %: 99.9029  MISS %: 0.0971455  AVERAGE MISS PENALTY: 100
STLB RFO       ACCESS: 910284  HIT: 908384  MISS:  1900  HIT %: 99.7913  MISS %: 0.208726  AVERAGE MISS PENALTY: 100
STLB PREFETCH  ACCESS:     0  HIT:     0  MISS:     0  HIT %:     0  MISS %:     0  AVERAGE MISS PENALTY: 0
STLB WRITEBACK ACCESS:     0  HIT:     0  MISS:     0  HIT %:     0  MISS %:     0  AVERAGE MISS PENALTY: 0

L1D TOTAL     ACCESS: 115218240  HIT: 91624354  MISS: 23593886  HIT %: 79.5224  MISS %: 20.4776  AVERAGE MISS PENALTY: 1.54319e+06
L1D LOAD      ACCESS: 61817725  HIT: 47999615  MISS: 13818110  HIT %: 77.647  MISS %: 22.353  AVERAGE MISS PENALTY: 2.58227e+06
L1D RFO       ACCESS: 16011636  HIT: 14686097  MISS: 1325539  HIT %: 91.7214  MISS %: 8.2786  AVERAGE MISS PENALTY: 548901
L1D PREFETCH  ACCESS: 37388879  HIT: 28938642  MISS: 8450237  HIT %: 77.3991  MISS %: 22.6009  AVERAGE MISS PENALTY: 24.8303
L1D WRITEBACK ACCESS:     0  HIT:     0  MISS:     0  HIT %:     0  MISS %:     0  AVERAGE MISS PENALTY: 0

L1I TOTAL     ACCESS: 45620472  HIT: 40413819  MISS: 5206653  HIT %: 88.587  MISS %: 11.413  AVERAGE MISS PENALTY: 11.081
L1I LOAD      ACCESS: 45620472  HIT: 40413819  MISS: 5206653  HIT %: 88.587  MISS %: 11.413  AVERAGE MISS PENALTY: 11.081
L1I RFO       ACCESS:     0  HIT:     0  MISS:     0  HIT %:     0  MISS %:     0  AVERAGE MISS PENALTY: 0
L1I PREFETCH  ACCESS:     0  HIT:     0  MISS:     0  HIT %:     0  MISS %:     0  AVERAGE MISS PENALTY: 0
L1I WRITEBACK ACCESS:     0  HIT:     0  MISS:     0  HIT %:     0  MISS %:     0  AVERAGE MISS PENALTY: 0

L2C TOTAL     ACCESS: 45250815  HIT: 44273979  MISS: 976836  HIT %: 97.8413  MISS %: 2.15871  AVERAGE MISS PENALTY: 17656.8
L2C LOAD      ACCESS: 18986143  HIT: 18962184  MISS: 23959  HIT %: 99.8738  MISS %: 0.126192  AVERAGE MISS PENALTY: 710742
L2C RFO       ACCESS: 1319462  HIT: 1201450  MISS: 118012  HIT %: 91.0561  MISS %: 8.94395  AVERAGE MISS PENALTY: 720.036
L2C PREFETCH  ACCESS: 23435613  HIT: 22600920  MISS: 834693  HIT %: 96.4384  MISS %: 3.56164  AVERAGE MISS PENALTY: 160.728
L2C WRITEBACK ACCESS: 1509597  HIT: 1509425  MISS:   172  HIT %: 99.9886  MISS %: 0.0113938  AVERAGE MISS PENALTY: 0


LLC0 TOTAL     ACCESS: 138719  HIT: 64257  MISS: 74462  HIT %: 46.3217  MISS %: 53.6783  AVERAGE MISS PENALTY: 298.492
LLC0 LOAD      ACCESS: 14508  HIT:  6691  MISS:  7817  HIT %: 46.1194  MISS %: 53.8806  AVERAGE MISS PENALTY: 211.779
LLC0 RFO       ACCESS: 14832  HIT:   107  MISS: 14725  HIT %: 0.721413  MISS %: 99.2786  AVERAGE MISS PENALTY: 627.55
LLC0 PREFETCH  ACCESS: 94513  HIT: 44094  MISS: 50419  HIT %: 46.6539  MISS %: 53.3461  AVERAGE MISS PENALTY: 224.72
LLC0 WRITEBACK ACCESS: 14866  HIT: 13365  MISS:  1501  HIT %: 89.9031  MISS %: 10.0969  AVERAGE MISS PENALTY: 0

LLC1 TOTAL     ACCESS: 136274  HIT: 61771  MISS: 74503  HIT %: 45.3285  MISS %: 54.6715  AVERAGE MISS PENALTY: 308.634
LLC1 LOAD      ACCESS:  1246  HIT:   516  MISS:   730  HIT %: 41.4125  MISS %: 58.5875  AVERAGE MISS PENALTY: 287.053
LLC1 RFO       ACCESS: 14769  HIT:    44  MISS: 14725  HIT %: 0.297921  MISS %: 99.7021  AVERAGE MISS PENALTY: 678.857
LLC1 PREFETCH  ACCESS: 105466  HIT: 48025  MISS: 57441  HIT %: 45.536  MISS %: 54.464  AVERAGE MISS PENALTY: 222.635
LLC1 WRITEBACK ACCESS: 14793  HIT: 13186  MISS:  1607  HIT %: 89.1368  MISS %: 10.8632  AVERAGE MISS PENALTY: 0

LLC2 TOTAL     ACCESS: 135988  HIT: 61663  MISS: 74325  HIT %: 45.3444  MISS %: 54.6556  AVERAGE MISS PENALTY: 320.765
LLC2 LOAD      ACCESS:  1223  HIT:   456  MISS:   767  HIT %: 37.2854  MISS %: 62.7146  AVERAGE MISS PENALTY: 297.073
LLC2 RFO       ACCESS: 14733  HIT:     8  MISS: 14725  HIT %: 0.0542999  MISS %: 99.9457  AVERAGE MISS PENALTY: 711.207
LLC2 PREFETCH  ACCESS: 105301  HIT: 48044  MISS: 57257  HIT %: 45.6254  MISS %: 54.3746  AVERAGE MISS PENALTY: 229.5
LLC2 WRITEBACK ACCESS: 14731  HIT: 13155  MISS:  1576  HIT %: 89.3015  MISS %: 10.6985  AVERAGE MISS PENALTY: 0

LLC3 TOTAL     ACCESS: 137586  HIT: 63024  MISS: 74562  HIT %: 45.807  MISS %: 54.193  AVERAGE MISS PENALTY: 316.434
LLC3 LOAD      ACCESS:  2179  HIT:  1328  MISS:   851  HIT %: 60.9454  MISS %: 39.0546  AVERAGE MISS PENALTY: 353.208
LLC3 RFO       ACCESS: 14750  HIT:     0  MISS: 14750  HIT %:     0  MISS %:   100  AVERAGE MISS PENALTY: 689.295
LLC3 PREFETCH  ACCESS: 105834  HIT: 48430  MISS: 57404  HIT %: 45.7603  MISS %: 54.2397  AVERAGE MISS PENALTY: 228.665
LLC3 WRITEBACK ACCESS: 14823  HIT: 13266  MISS:  1557  HIT %: 89.4961  MISS %: 10.5039  AVERAGE MISS PENALTY: 0

LLC4 TOTAL     ACCESS: 135953  HIT: 61538  MISS: 74415  HIT %: 45.2642  MISS %: 54.7358  AVERAGE MISS PENALTY: 308.77
LLC4 LOAD      ACCESS:  1136  HIT:   356  MISS:   780  HIT %: 31.338  MISS %: 68.662  AVERAGE MISS PENALTY: 395.85
LLC4 RFO       ACCESS: 14725  HIT:     0  MISS: 14725  HIT %:     0  MISS %:   100  AVERAGE MISS PENALTY: 676.648
LLC4 PREFETCH  ACCESS: 105366  HIT: 48012  MISS: 57354  HIT %: 45.5669  MISS %: 54.4331  AVERAGE MISS PENALTY: 221.514
LLC4 WRITEBACK ACCESS: 14726  HIT: 13170  MISS:  1556  HIT %: 89.4337  MISS %: 10.5663  AVERAGE MISS PENALTY: 0

LLC5 TOTAL     ACCESS: 135915  HIT: 61406  MISS: 74509  HIT %: 45.1797  MISS %: 54.8203  AVERAGE MISS PENALTY: 306.295
LLC5 LOAD      ACCESS:  1197  HIT:   484  MISS:   713  HIT %: 40.4344  MISS %: 59.5656  AVERAGE MISS PENALTY: 243.003
LLC5 RFO       ACCESS: 14750  HIT:     0  MISS: 14750  HIT %:     0  MISS %:   100  AVERAGE MISS PENALTY: 674.376
LLC5 PREFETCH  ACCESS: 105215  HIT: 47764  MISS: 57451  HIT %: 45.3966  MISS %: 54.6034  AVERAGE MISS PENALTY: 221.082
LLC5 WRITEBACK ACCESS: 14753  HIT: 13158  MISS:  1595  HIT %: 89.1886  MISS %: 10.8114  AVERAGE MISS PENALTY: 0

LLC6 TOTAL     ACCESS: 136308  HIT: 62026  MISS: 74282  HIT %: 45.5043  MISS %: 54.4957  AVERAGE MISS PENALTY: 318.441
LLC6 LOAD      ACCESS:  1167  HIT:   429  MISS:   738  HIT %: 36.7609  MISS %: 63.2391  AVERAGE MISS PENALTY: 364.832
LLC6 RFO       ACCESS: 14725  HIT:     0  MISS: 14725  HIT %:     0  MISS %:   100  AVERAGE MISS PENALTY: 703.412
LLC6 PREFETCH  ACCESS: 105669  HIT: 48379  MISS: 57290  HIT %: 45.7835  MISS %: 54.2165  AVERAGE MISS PENALTY: 227.394
LLC6 WRITEBACK ACCESS: 14747  HIT: 13218  MISS:  1529  HIT %: 89.6318  MISS %: 10.3682  AVERAGE MISS PENALTY: 0

LLC7 TOTAL     ACCESS: 138236  HIT: 63733  MISS: 74503  HIT %: 46.1045  MISS %: 53.8955  AVERAGE MISS PENALTY: 315.508
LLC7 LOAD      ACCESS:  1303  HIT:   578  MISS:   725  HIT %: 44.3592  MISS %: 55.6408  AVERAGE MISS PENALTY: 281.767
LLC7 RFO       ACCESS: 14725  HIT:     0  MISS: 14725  HIT %:     0  MISS %:   100  AVERAGE MISS PENALTY: 693.901
LLC7 PREFETCH  ACCESS: 107330  HIT: 49889  MISS: 57441  HIT %: 46.4819  MISS %: 53.5181  AVERAGE MISS PENALTY: 227.787
LLC7 WRITEBACK ACCESS: 14878  HIT: 13266  MISS:  1612  HIT %: 89.1652  MISS %: 10.8348  AVERAGE MISS PENALTY: 0

Total Rob stall cycles : 	128618936
Total Load Rob Stall cycles : 	40034178
Average Rob Stall cycles : 	 5
Average Load Rob Stall cycles : 	 12

CPU 1 cumulative IPC: 1.17336 instructions: 200315980 cycles: 170720465
ITLB TOTAL     ACCESS: 39170934  HIT: 39170934  MISS:     0  HIT %:   100  MISS %:     0  AVERAGE MISS PENALTY: 0
ITLB LOAD      ACCESS: 39170934  HIT: 39170934  MISS:     0  HIT %:   100  MISS %:     0  AVERAGE MISS PENALTY: 0
ITLB RFO       ACCESS:     0  HIT:     0  MISS:     0  HIT %:     0  MISS %:     0  AVERAGE MISS PENALTY: 0
ITLB PREFETCH  ACCESS:     0  HIT:     0  MISS:     0  HIT %:     0  MISS %:     0  AVERAGE MISS PENALTY: 0
ITLB WRITEBACK ACCESS:     0  HIT:     0  MISS:     0  HIT %:     0  MISS %:     0  AVERAGE MISS PENALTY: 0

DTLB TOTAL     ACCESS: 53777013  HIT: 46041653  MISS: 7735360  HIT %: 85.6159  MISS %: 14.3841  AVERAGE MISS PENALTY: 9.78921
DTLB LOAD      ACCESS: 45314938  HIT: 38490119  MISS: 6824819  HIT %: 84.9391  MISS %: 15.0609  AVERAGE MISS PENALTY: 9.62489
DTLB RFO       ACCESS: 8462075  HIT: 7551534  MISS: 910541  HIT %: 89.2397  MISS %: 10.7603  AVERAGE MISS PENALTY: 11.0209
DTLB PREFETCH  ACCESS:     0  HIT:     0  MISS:     0  HIT %:     0  MISS %:     0  AVERAGE MISS PENALTY: 0
DTLB WRITEBACK ACCESS:     0  HIT:     0  MISS:     0  HIT %:     0  MISS %:     0  AVERAGE MISS PENALTY: 0

STLB TOTAL     ACCESS: 7735360  HIT: 7726832  MISS:  8528  HIT %: 99.8898  MISS %: 0.110247  AVERAGE MISS PENALTY: 100
STLB LOAD      ACCESS: 6824819  HIT: 6818191  MISS:  6628  HIT %: 99.9029  MISS %: 0.0971161  AVERAGE MISS PENALTY: 100
STLB RFO       ACCESS: 910541  HIT: 908641  MISS:  1900  HIT %: 99.7913  MISS %: 0.208667  AVERAGE MISS PENALTY: 100
STLB PREFETCH  ACCESS:     0  HIT:     0  MISS:     0  HIT %:     0  MISS %:     0  AVERAGE MISS PENALTY: 0
STLB WRITEBACK ACCESS:     0  HIT:     0  MISS:     0  HIT %:     0  MISS %:     0  AVERAGE MISS PENALTY: 0

L1D TOTAL     ACCESS: 115253682  HIT: 91651283  MISS: 23602399  HIT %: 79.5213  MISS %: 20.4787  AVERAGE MISS PENALTY: 1.548e+06
L1D LOAD      ACCESS: 61834023  HIT: 48006736  MISS: 13827287  HIT %: 77.6381  MISS %: 22.3619  AVERAGE MISS PENALTY: 2.58968e+06
L1D RFO       ACCESS: 16016313  HIT: 14690221  MISS: 1326092  HIT %: 91.7204  MISS %: 8.27963  AVERAGE MISS PENALTY: 548919
L1D PREFETCH  ACCESS: 37403346  HIT: 28954326  MISS: 8449020  HIT %: 77.4111  MISS %: 22.5889  AVERAGE MISS PENALTY: 37.9141
L1D WRITEBACK ACCESS:     0  HIT:     0  MISS:     0  HIT %:     0  MISS %:     0  AVERAGE MISS PENALTY: 0

L1I TOTAL     ACCESS: 45633054  HIT: 40424869  MISS: 5208185  HIT %: 88.5868  MISS %: 11.4132  AVERAGE MISS PENALTY: 11.1143
L1I LOAD      ACCESS: 45633054  HIT: 40424869  MISS: 5208185  HIT %: 88.5868  MISS %: 11.4132  AVERAGE MISS PENALTY: 11.1143
L1I RFO       ACCESS:     0  HIT:     0  MISS:     0  HIT %:     0  MISS %:     0  AVERAGE MISS PENALTY: 0
L1I PREFETCH  ACCESS:     0  HIT:     0  MISS:     0  HIT %:     0  MISS %:     0  AVERAGE MISS PENALTY: 0
L1I WRITEBACK ACCESS:     0  HIT:     0  MISS:     0  HIT %:     0  MISS %:     0  AVERAGE MISS PENALTY: 0

L2C TOTAL     ACCESS: 45319925  HIT: 44328940  MISS: 990985  HIT %: 97.8134  MISS %: 2.18664  AVERAGE MISS PENALTY: 51061.5
L2C LOAD      ACCESS: 18995584  HIT: 18960557  MISS: 35027  HIT %: 99.8156  MISS %: 0.184395  AVERAGE MISS PENALTY: 1.43837e+06
L2C RFO       ACCESS: 1320071  HIT: 1201877  MISS: 118194  HIT %: 91.0464  MISS %: 8.95361  AVERAGE MISS PENALTY: 707.156
L2C PREFETCH  ACCESS: 23494210  HIT: 22656619  MISS: 837591  HIT %: 96.4349  MISS %: 3.5651  AVERAGE MISS PENALTY: 161.98
L2C WRITEBACK ACCESS: 1510060  HIT: 1509887  MISS:   173  HIT %: 99.9885  MISS %: 0.0114565  AVERAGE MISS PENALTY: 0


LLC0 TOTAL     ACCESS: 139989  HIT: 65255  MISS: 74734  HIT %: 46.6144  MISS %: 53.3856  AVERAGE MISS PENALTY: 293.737
LLC0 LOAD      ACCESS: 15172  HIT:  7262  MISS:  7910  HIT %: 47.8645  MISS %: 52.1355  AVERAGE MISS PENALTY: 202.571
LLC0 RFO       ACCESS: 14817  HIT:    92  MISS: 14725  HIT %: 0.620908  MISS %: 99.3791  AVERAGE MISS PENALTY: 620.256
LLC0 PREFETCH  ACCESS: 95151  HIT: 44657  MISS: 50494  HIT %: 46.9328  MISS %: 53.0672  AVERAGE MISS PENALTY: 222.136
LLC0 WRITEBACK ACCESS: 14849  HIT: 13244  MISS:  1605  HIT %: 89.1912  MISS %: 10.8088  AVERAGE MISS PENALTY: 0

LLC1 TOTAL     ACCESS: 137057  HIT: 62665  MISS: 74392  HIT %: 45.7219  MISS %: 54.2781  AVERAGE MISS PENALTY: 304.504
LLC1 LOAD      ACCESS:  1906  HIT:  1173  MISS:   733  HIT %: 61.5425  MISS %: 38.4575  AVERAGE MISS PENALTY: 252.88
LLC1 RFO       ACCESS: 14770  HIT:    45  MISS: 14725  HIT %: 0.304672  MISS %: 99.6953  AVERAGE MISS PENALTY: 671.013
LLC1 PREFETCH  ACCESS: 105579  HIT: 48195  MISS: 57384  HIT %: 45.6483  MISS %: 54.3517  AVERAGE MISS PENALTY: 219.341
LLC1 WRITEBACK ACCESS: 14802  HIT: 13252  MISS:  1550  HIT %: 89.5284  MISS %: 10.4716  AVERAGE MISS PENALTY: 0

LLC2 TOTAL     ACCESS: 136743  HIT: 62247  MISS: 74496  HIT %: 45.5212  MISS %: 54.4788  AVERAGE MISS PENALTY: 318.661
LLC2 LOAD      ACCESS:  2141  HIT:  1357  MISS:   784  HIT %: 63.3816  MISS %: 36.6184  AVERAGE MISS PENALTY: 249.985
LLC2 RFO       ACCESS: 14740  HIT:    15  MISS: 14725  HIT %: 0.101764  MISS %: 99.8982  AVERAGE MISS PENALTY: 679.527
LLC2 PREFETCH  ACCESS: 105107  HIT: 47704  MISS: 57403  HIT %: 45.3861  MISS %: 54.6139  AVERAGE MISS PENALTY: 235.823
LLC2 WRITEBACK ACCESS: 14755  HIT: 13171  MISS:  1584  HIT %: 89.2647  MISS %: 10.7353  AVERAGE MISS PENALTY: 0

LLC3 TOTAL     ACCESS: 138571  HIT: 63952  MISS: 74619  HIT %: 46.1511  MISS %: 53.8489  AVERAGE MISS PENALTY: 317.303
LLC3 LOAD      ACCESS:  3123  HIT:  2228  MISS:   895  HIT %: 71.3417  MISS %: 28.6583  AVERAGE MISS PENALTY: 227.715
LLC3 RFO       ACCESS: 14752  HIT:     2  MISS: 14750  HIT %: 0.0135575  MISS %: 99.9864  AVERAGE MISS PENALTY: 681.158
LLC3 PREFETCH  ACCESS: 105872  HIT: 48428  MISS: 57444  HIT %: 45.742  MISS %: 54.258  AVERAGE MISS PENALTY: 233.722
LLC3 WRITEBACK ACCESS: 14824  HIT: 13294  MISS:  1530  HIT %: 89.6789  MISS %: 10.3211  AVERAGE MISS PENALTY: 0

LLC4 TOTAL     ACCESS: 136978  HIT: 62427  MISS: 74551  HIT %: 45.5745  MISS %: 54.4255  AVERAGE MISS PENALTY: 305.571
[...]
 TIMELY PREFETCHES:       1751 LATE PREFETCHES: 0 DROPPED PREFETCHES: 0
LLC1 AVERAGE MISS LATENCY: 310.895 cycles
LLC2 TOTAL     ACCESS: 137761  HIT: 63462  MISS: 74299  HIT %: 46.0667  MISS %: 53.9333  AVERAGE MISS PENALTY: 311.747
LLC2 LOAD      ACCESS:  1195  HIT:   437  MISS:   758  HIT %: 36.569  MISS %: 63.431  AVERAGE MISS PENALTY: 322.743
LLC2 RFO       ACCESS: 14725  HIT:    25  MISS: 14700  HIT %: 0.169779  MISS %: 99.8302  AVERAGE MISS PENALTY: 686.257
LLC2 PREFETCH  ACCESS: 107098  HIT: 49832  MISS: 57266  HIT %: 46.5293  MISS %: 53.4707  AVERAGE MISS PENALTY: 224.04
LLC2 WRITEBACK ACCESS: 14743  HIT: 13168  MISS:  1575  HIT %: 89.317  MISS %: 10.683  AVERAGE MISS PENALTY: 0
LLC2 PREFETCH  REQUESTED:     0  ISSUED:     0  USEFUL:  1712  USELESS: 458126
 USEFUL LOAD PREFETCHES:       1712 PREFETCH ISSUED TO LOWER LEVEL:     660433  ACCURACY: 0.259224
 TIMELY PREFETCHES:       1712 LATE PREFETCHES: 0 DROPPED PREFETCHES: 0
LLC2 AVERAGE MISS LATENCY: 311.747 cycles
LLC3 TOTAL     ACCESS: 139818  HIT: 65220  MISS: 74598  HIT %: 46.6464  MISS %: 53.3536  AVERAGE MISS PENALTY: 309.582
LLC3 LOAD      ACCESS:  2346  HIT:  1467  MISS:   879  HIT %: 62.532  MISS %: 37.468  AVERAGE MISS PENALTY: 342.633
LLC3 RFO       ACCESS: 14735  HIT:    10  MISS: 14725  HIT %: 0.0678656  MISS %: 99.9321  AVERAGE MISS PENALTY: 682.891
LLC3 PREFETCH  ACCESS: 107922  HIT: 50526  MISS: 57396  HIT %: 46.8171  MISS %: 53.1829  AVERAGE MISS PENALTY: 221.923
LLC3 WRITEBACK ACCESS: 14815  HIT: 13217  MISS:  1598  HIT %: 89.2136  MISS %: 10.7864  AVERAGE MISS PENALTY: 0
LLC3 PREFETCH  REQUESTED:     0  ISSUED:     0  USEFUL:  1484  USELESS: 459901
 USEFUL LOAD PREFETCHES:       1484 PREFETCH ISSUED TO LOWER LEVEL:     546398  ACCURACY: 0.271597
 TIMELY PREFETCHES:       1484 LATE PREFETCHES: 0 DROPPED PREFETCHES: 0
LLC3 AVERAGE MISS LATENCY: 309.582 cycles
LLC4 TOTAL     ACCESS: 138048  HIT: 63658  MISS: 74390  HIT %: 46.1129  MISS %: 53.8871  AVERAGE MISS PENALTY: 313.65
LLC4 LOAD      ACCESS:  1194  HIT:   392  MISS:   802  HIT %: 32.8308  MISS %: 67.1692  AVERAGE MISS PENALTY: 412.11
LLC4 RFO       ACCESS: 14713  HIT:    13  MISS: 14700  HIT %: 0.0883572  MISS %: 99.9116  AVERAGE MISS PENALTY: 703.191
LLC4 PREFETCH  ACCESS: 107418  HIT: 50150  MISS: 57268  HIT %: 46.6868  MISS %: 53.3132  AVERAGE MISS PENALTY: 221.154
LLC4 WRITEBACK ACCESS: 14723  HIT: 13103  MISS:  1620  HIT %: 88.9968  MISS %: 11.0032  AVERAGE MISS PENALTY: 0
LLC4 PREFETCH  REQUESTED:     0  ISSUED:     0  USEFUL:  1425  USELESS: 458674
 USEFUL LOAD PREFETCHES:       1425 PREFETCH ISSUED TO LOWER LEVEL:     712686  ACCURACY: 0.199948
 TIMELY PREFETCHES:       1425 LATE PREFETCHES: 0 DROPPED PREFETCHES: 0
LLC4 AVERAGE MISS LATENCY: 313.65 cycles
LLC5 TOTAL     ACCESS: 138047  HIT: 63600  MISS: 74447  HIT %: 46.0713  MISS %: 53.9287  AVERAGE MISS PENALTY: 310.079
LLC5 LOAD      ACCESS:  1319  HIT:   596  MISS:   723  HIT %: 45.1857  MISS %: 54.8143  AVERAGE MISS PENALTY: 278.949
LLC5 RFO       ACCESS: 14739  HIT:    14  MISS: 14725  HIT %: 0.0949861  MISS %: 99.905  AVERAGE MISS PENALTY: 691.048
LLC5 PREFETCH  ACCESS: 107216  HIT: 49802  MISS: 57414  HIT %: 46.4502  MISS %: 53.5498  AVERAGE MISS PENALTY: 221.323
LLC5 WRITEBACK ACCESS: 14773  HIT: 13188  MISS:  1585  HIT %: 89.271  MISS %: 10.729  AVERAGE MISS PENALTY: 0
LLC5 PREFETCH  REQUESTED:     0  ISSUED:     0  USEFUL:  1691  USELESS: 459341
 USEFUL LOAD PREFETCHES:       1691 PREFETCH ISSUED TO LOWER LEVEL:     558461  ACCURACY: 0.302796
 TIMELY PREFETCHES:       1691 LATE PREFETCHES: 0 DROPPED PREFETCHES: 0
LLC5 AVERAGE MISS LATENCY: 310.079 cycles
LLC6 TOTAL     ACCESS: 138566  HIT: 64280  MISS: 74286  HIT %: 46.3894  MISS %: 53.6106  AVERAGE MISS PENALTY: 310.598
LLC6 LOAD      ACCESS:  1194  HIT:   444  MISS:   750  HIT %: 37.1859  MISS %: 62.8141  AVERAGE MISS PENALTY: 373.804
LLC6 RFO       ACCESS: 14752  HIT:    27  MISS: 14725  HIT %: 0.183026  MISS %: 99.817  AVERAGE MISS PENALTY: 679.471
LLC6 PREFETCH  ACCESS: 107826  HIT: 50603  MISS: 57223  HIT %: 46.9302  MISS %: 53.0698  AVERAGE MISS PENALTY: 223.468
LLC6 WRITEBACK ACCESS: 14794  HIT: 13206  MISS:  1588  HIT %: 89.2659  MISS %: 10.7341  AVERAGE MISS PENALTY: 0
LLC6 PREFETCH  REQUESTED:     0  ISSUED:     0  USEFUL:  1881  USELESS: 457942
 USEFUL LOAD PREFETCHES:       1881 PREFETCH ISSUED TO LOWER LEVEL:     833812  ACCURACY: 0.22559
 TIMELY PREFETCHES:       1881 LATE PREFETCHES: 0 DROPPED PREFETCHES: 0
LLC6 AVERAGE MISS LATENCY: 310.598 cycles
LLC7 TOTAL     ACCESS: 140147  HIT: 65563  MISS: 74584  HIT %: 46.7816  MISS %: 53.2184  AVERAGE MISS PENALTY: 309.851
LLC7 LOAD      ACCESS:  1276  HIT:   525  MISS:   751  HIT %: 41.1442  MISS %: 58.8558  AVERAGE MISS PENALTY: 344.434
LLC7 RFO       ACCESS: 14744  HIT:    19  MISS: 14725  HIT %: 0.128866  MISS %: 99.8711  AVERAGE MISS PENALTY: 683.313
LLC7 PREFETCH  ACCESS: 109283  HIT: 51729  MISS: 57554  HIT %: 47.3349  MISS %: 52.6651  AVERAGE MISS PENALTY: 222.217
LLC7 WRITEBACK ACCESS: 14844  HIT: 13290  MISS:  1554  HIT %: 89.5311  MISS %: 10.4689  AVERAGE MISS PENALTY: 0
LLC7 PREFETCH  REQUESTED:     0  ISSUED:     0  USEFUL:  1891  USELESS: 459804
 USEFUL LOAD PREFETCHES:       1891 PREFETCH ISSUED TO LOWER LEVEL:     614472  ACCURACY: 0.307744
 TIMELY PREFETCHES:       1891 LATE PREFETCHES: 0 DROPPED PREFETCHES: 0
LLC7 AVERAGE MISS LATENCY: 309.851 cycles
ROI Average ROB Stall Cycles:	5.84828
ROI Total ROB Stalls Cycles:	128572891
ROI TOTAL ROB counter      :	21984744
ROI Average Load ROB Stall Cycles:	12.3601
ROI Total Load ROB Stalls Cycle  :	40094542
ROI Total Load ROB stalls Counter:	3243873
Major fault: 0 Minor fault: 11251

CPU 7 cumulative IPC: 1.17151 instructions: 200000000 cycles: 170720466
ITLB TOTAL     ACCESS: 39110471  HIT: 39110471  MISS:     0  HIT %:   100  MISS %:     0  AVERAGE MISS PENALTY: 0
ITLB LOAD      ACCESS: 39110471  HIT: 39110471  MISS:     0  HIT %:   100  MISS %:     0  AVERAGE MISS PENALTY: 0
ITLB RFO       ACCESS:     0  HIT:     0  MISS:     0  HIT %:     0  MISS %:     0  AVERAGE MISS PENALTY: 0
ITLB PREFETCH  ACCESS:     0  HIT:     0  MISS:     0  HIT %:     0  MISS %:     0  AVERAGE MISS PENALTY: 0
ITLB WRITEBACK ACCESS:     0  HIT:     0  MISS:     0  HIT %:     0  MISS %:     0  AVERAGE MISS PENALTY: 0
ITLB PREFETCH  REQUESTED:     0  ISSUED:     0  USEFUL:     0  USELESS:     0
 USEFUL LOAD PREFETCHES:          0 PREFETCH ISSUED TO LOWER LEVEL:          0  ACCURACY: -nan
 TIMELY PREFETCHES:          0 LATE PREFETCHES: 0 DROPPED PREFETCHES: 0
ITLB AVERAGE MISS LATENCY: -nan cycles
DTLB TOTAL     ACCESS: 53693085  HIT: 45970217  MISS: 7722868  HIT %: 85.6166  MISS %: 14.3834  AVERAGE MISS PENALTY: 9.79027
DTLB LOAD      ACCESS: 45243915  HIT: 38430156  MISS: 6813759  HIT %: 84.9399  MISS %: 15.0601  AVERAGE MISS PENALTY: 9.62543
DTLB RFO       ACCESS: 8449170  HIT: 7540061  MISS: 909109  HIT %: 89.2403  MISS %: 10.7597  AVERAGE MISS PENALTY: 11.0257
DTLB PREFETCH  ACCESS:     0  HIT:     0  MISS:     0  HIT %:     0  MISS %:     0  AVERAGE MISS PENALTY: 0
DTLB WRITEBACK ACCESS:     0  HIT:     0  MISS:     0  HIT %:     0  MISS %:     0  AVERAGE MISS PENALTY: 0
DTLB PREFETCH  REQUESTED:     0  ISSUED:     0  USEFUL:     0  USELESS:     0
 USEFUL LOAD PREFETCHES:          0 PREFETCH ISSUED TO LOWER LEVEL:          0  ACCURACY: -nan
 TIMELY PREFETCHES:          0 LATE PREFETCHES: 0 DROPPED PREFETCHES: 0
DTLB AVERAGE MISS LATENCY: 9.79027 cycles
STLB TOTAL     ACCESS: 7722868  HIT: 7714344  MISS:  8524  HIT %: 99.8896  MISS %: 0.110374  AVERAGE MISS PENALTY: 100
STLB LOAD      ACCESS: 6813759  HIT: 6807135  MISS:  6624  HIT %: 99.9028  MISS %: 0.0972151  AVERAGE MISS PENALTY: 100
STLB RFO       ACCESS: 909109  HIT: 907209  MISS:  1900  HIT %: 99.791  MISS %: 0.208996  AVERAGE MISS PENALTY: 100
STLB PREFETCH  ACCESS:     0  HIT:     0  MISS:     0  HIT %:     0  MISS %:     0  AVERAGE MISS PENALTY: 0
STLB WRITEBACK ACCESS:     0  HIT:     0  MISS:     0  HIT %:     0  MISS %:     0  AVERAGE MISS PENALTY: 0
STLB PREFETCH  REQUESTED:     0  ISSUED:     0  USEFUL:     0  USELESS:     0
 USEFUL LOAD PREFETCHES:          0 PREFETCH ISSUED TO LOWER LEVEL:          0  ACCURACY: -nan
 TIMELY PREFETCHES:          0 LATE PREFETCHES: 0 DROPPED PREFETCHES: 0
STLB AVERAGE MISS LATENCY: 100 cycles
L1D TOTAL     ACCESS: 115065326  HIT: 91516623  MISS: 23548703  HIT %: 79.5345  MISS %: 20.4655  AVERAGE MISS PENALTY: 1.5414e+06
L1D LOAD      ACCESS: 61734298  HIT: 47936033  MISS: 13798265  HIT %: 77.6489  MISS %: 22.3511  AVERAGE MISS PENALTY: 2.57837e+06
L1D RFO       ACCESS: 15990376  HIT: 14667169  MISS: 1323207  HIT %: 91.725  MISS %: 8.27502  AVERAGE MISS PENALTY: 544816
L1D PREFETCH  ACCESS: 37340652  HIT: 28913421  MISS: 8427231  HIT %: 77.4315  MISS %: 22.5685  AVERAGE MISS PENALTY: 24.7455
L1D WRITEBACK ACCESS:     0  HIT:     0  MISS:     0  HIT %:     0  MISS %:     0  AVERAGE MISS PENALTY: 0
L1D PREFETCH  REQUESTED: 42683445  ISSUED: 39054991  USEFUL: 593084  USELESS: 7834145
 USEFUL LOAD PREFETCHES:     593084 PREFETCH ISSUED TO LOWER LEVEL:   21272194  ACCURACY: 2.78807
 TIMELY PREFETCHES:     593084 LATE PREFETCHES: 587087 DROPPED PREFETCHES: 3628454
L1D AVERAGE MISS LATENCY: 30631.5 cycles
L1I TOTAL     ACCESS: 45559684  HIT: 40359738  MISS: 5199946  HIT %: 88.5865  MISS %: 11.4135  AVERAGE MISS PENALTY: 11.2022
L1I LOAD      ACCESS: 45559684  HIT: 40359738  MISS: 5199946  HIT %: 88.5865  MISS %: 11.4135  AVERAGE MISS PENALTY: 11.2022
L1I RFO       ACCESS:     0  HIT:     0  MISS:     0  HIT %:     0  MISS %:     0  AVERAGE MISS PENALTY: 0
L1I PREFETCH  ACCESS:     0  HIT:     0  MISS:     0  HIT %:     0  MISS %:     0  AVERAGE MISS PENALTY: 0
L1I WRITEBACK ACCESS:     0  HIT:     0  MISS:     0  HIT %:     0  MISS %:     0  AVERAGE MISS PENALTY: 0
L1I PREFETCH  REQUESTED:     0  ISSUED:     0  USEFUL:     0  USELESS:     0
 USEFUL LOAD PREFETCHES:          0 PREFETCH ISSUED TO LOWER LEVEL:          0  ACCURACY: -nan
 TIMELY PREFETCHES:          0 LATE PREFETCHES: 0 DROPPED PREFETCHES: 0
L1I AVERAGE MISS LATENCY: 11.2022 cycles
L2C TOTAL     ACCESS: 45195693  HIT: 44149490  MISS: 1046203  HIT %: 97.6852  MISS %: 2.31483  AVERAGE MISS PENALTY: 513317
L2C LOAD      ACCESS: 18959508  HIT: 18907757  MISS: 51751  HIT %: 99.727  MISS %: 0.272955  AVERAGE MISS PENALTY: 1.03731e+07
L2C RFO       ACCESS: 1317222  HIT: 1194584  MISS: 122638  HIT %: 90.6896  MISS %: 9.31035  AVERAGE MISS PENALTY: 682.78
L2C PREFETCH  ACCESS: 23412002  HIT: 22541054  MISS: 870948  HIT %: 96.2799  MISS %: 3.72009  AVERAGE MISS PENALTY: 151.079
L2C WRITEBACK ACCESS: 1506961  HIT: 1506095  MISS:   866  HIT %: 99.9425  MISS %: 0.0574666  AVERAGE MISS PENALTY: 0
L2C PREFETCH  REQUESTED: 19808038  ISSUED: 18508067  USEFUL: 849033  USELESS: 21944
 USEFUL LOAD PREFETCHES:     849033 PREFETCH ISSUED TO LOWER LEVEL:     893348  ACCURACY: 95.0394
 TIMELY PREFETCHES:     849033 LATE PREFETCHES: 9031 DROPPED PREFETCHES: 1299971
L2C AVERAGE MISS LATENCY: 211.335 cycles
LLC0 TOTAL     ACCESS: 156189  HIT: 81270  MISS: 74919  HIT %: 52.0331  MISS %: 47.9669  AVERAGE MISS PENALTY: 293.072
LLC0 LOAD      ACCESS: 22125  HIT: 14073  MISS:  8052  HIT %: 63.6068  MISS %: 36.3932  AVERAGE MISS PENALTY: 213.58
LLC0 RFO       ACCESS: 16429  HIT:  1728  MISS: 14701  HIT %: 10.518  MISS %: 89.482  AVERAGE MISS PENALTY: 642.235
LLC0 PREFETCH  ACCESS: 100760  HIT: 50232  MISS: 50528  HIT %: 49.8531  MISS %: 50.1469  AVERAGE MISS PENALTY: 213.652
LLC0 WRITEBACK ACCESS: 16875  HIT: 15237  MISS:  1638  HIT %: 90.2933  MISS %: 9.70667  AVERAGE MISS PENALTY: 0
LLC0 PREFETCH  REQUESTED:     0  ISSUED:     0  USEFUL:  1961  USELESS: 402287
 USEFUL LOAD PREFETCHES:       1961 PREFETCH ISSUED TO LOWER LEVEL:     568563  ACCURACY: 0.344905
 TIMELY PREFETCHES:       1961 LATE PREFETCHES: 0 DROPPED PREFETCHES: 0
LLC0 AVERAGE MISS LATENCY: 293.072 cycles
Deadblocks : 60605 Deadblock percentage : 752.67

LLC1 TOTAL     ACCESS: 151908  HIT: 77094  MISS: 74814  HIT %: 50.7505  MISS %: 49.2495  AVERAGE MISS PENALTY: 301.768
LLC1 LOAD      ACCESS:  7518  HIT:  6666  MISS:   852  HIT %: 88.6672  MISS %: 11.3328  AVERAGE MISS PENALTY: 271.097
LLC1 RFO       ACCESS: 16065  HIT:  1365  MISS: 14700  HIT %: 8.49673  MISS %: 91.5033  AVERAGE MISS PENALTY: 688.701
LLC1 PREFETCH  ACCESS: 112100  HIT: 54509  MISS: 57591  HIT %: 48.6253  MISS %: 51.3747  AVERAGE MISS PENALTY: 212.214
LLC1 WRITEBACK ACCESS: 16225  HIT: 14554  MISS:  1671  HIT %: 89.7011  MISS %: 10.2989  AVERAGE MISS PENALTY: 0
LLC1 PREFETCH  REQUESTED:     0  ISSUED:     0  USEFUL:  1751  USELESS: 458621
 USEFUL LOAD PREFETCHES:       1751 PREFETCH ISSUED TO LOWER LEVEL:     524164  ACCURACY: 0.334056
 TIMELY PREFETCHES:       1751 LATE PREFETCHES: 0 DROPPED PREFETCHES: 0
LLC1 AVERAGE MISS LATENCY: 301.768 cycles
LLC2 TOTAL     ACCESS: 143651  HIT: 69048  MISS: 74603  HIT %: 48.0665  MISS %: 51.9335  AVERAGE MISS PENALTY: 304.764
LLC2 LOAD      ACCESS:  4114  HIT:  3246  MISS:   868  HIT %: 78.9013  MISS %: 21.0987  AVERAGE MISS PENALTY: 301.756
LLC2 RFO       ACCESS: 15075  HIT:   375  MISS: 14700  HIT %: 2.48756  MISS %: 97.5124  AVERAGE MISS PENALTY: 663.473
LLC2 PREFETCH  ACCESS: 109327  HIT: 51884  MISS: 57443  HIT %: 47.4576  MISS %: 52.5424  AVERAGE MISS PENALTY: 221.461
LLC2 WRITEBACK ACCESS: 15135  HIT: 13543  MISS:  1592  HIT %: 89.4813  MISS %: 10.5187  AVERAGE MISS PENALTY: 0
LLC2 PREFETCH  REQUESTED:     0  ISSUED:     0  USEFUL:  1712  USELESS: 458126
 USEFUL LOAD PREFETCHES:       1712 PREFETCH ISSUED TO LOWER LEVEL:     660433  ACCURACY: 0.259224
 TIMELY PREFETCHES:       1712 LATE PREFETCHES: 0 DROPPED PREFETCHES: 0
LLC2 AVERAGE MISS LATENCY: 304.764 cycles
LLC3 TOTAL     ACCESS: 142988  HIT: 67856  MISS: 75132  HIT %: 47.4557  MISS %: 52.5443  AVERAGE MISS PENALTY: 302.89
LLC3 LOAD      ACCESS:  3791  HIT:  2802  MISS:   989  HIT %: 73.9119  MISS %: 26.0881  AVERAGE MISS PENALTY: 381.833
LLC3 RFO       ACCESS: 14808  HIT:    83  MISS: 14725  HIT %: 0.560508  MISS %: 99.4395  AVERAGE MISS PENALTY: 667.599
LLC3 PREFETCH  ACCESS: 109385  HIT: 51618  MISS: 57767  HIT %: 47.1893  MISS %: 52.8107  AVERAGE MISS PENALTY: 217.23
LLC3 WRITEBACK ACCESS: 15004  HIT: 13353  MISS:  1651  HIT %: 88.9963  MISS %: 11.0037  AVERAGE MISS PENALTY: 0
LLC3 PREFETCH  REQUESTED:     0  ISSUED:     0  USEFUL:  1484  USELESS: 459901
 USEFUL LOAD PREFETCHES:       1484 PREFETCH ISSUED TO LOWER LEVEL:     546398  ACCURACY: 0.271597
 TIMELY PREFETCHES:       1484 LATE PREFETCHES: 0 DROPPED PREFETCHES: 0
LLC3 AVERAGE MISS LATENCY: 302.89 cycles
LLC4 TOTAL     ACCESS: 142177  HIT: 67593  MISS: 74584  HIT %: 47.5414  MISS %: 52.4586  AVERAGE MISS PENALTY: 303.306
LLC4 LOAD      ACCESS:  2606  HIT:  1763  MISS:   843  HIT %: 67.6516  MISS %: 32.3484  AVERAGE MISS PENALTY: 384.184
LLC4 RFO       ACCESS: 14844  HIT:   144  MISS: 14700  HIT %: 0.970089  MISS %: 99.0299  AVERAGE MISS PENALTY: 690.642
LLC4 PREFETCH  ACCESS: 109814  HIT: 52316  MISS: 57498  HIT %: 47.6406  MISS %: 52.3594  AVERAGE MISS PENALTY: 211.233
LLC4 WRITEBACK ACCESS: 14913  HIT: 13370  MISS:  1543  HIT %: 89.6533  MISS %: 10.3467  AVERAGE MISS PENALTY: 0
LLC4 PREFETCH  REQUESTED:     0  ISSUED:     0  USEFUL:  1425  USELESS: 458674
 USEFUL LOAD PREFETCHES:       1425 PREFETCH ISSUED TO LOWER LEVEL:     712686  ACCURACY: 0.199948
 TIMELY PREFETCHES:       1425 LATE PREFETCHES: 0 DROPPED PREFETCHES: 0
LLC4 AVERAGE MISS LATENCY: 303.306 cycles
LLC5 TOTAL     ACCESS: 142120  HIT: 67485  MISS: 74635  HIT %: 47.4845  MISS %: 52.5155  AVERAGE MISS PENALTY: 304.568
LLC5 LOAD      ACCESS:  3089  HIT:  2304  MISS:   785  HIT %: 74.5872  MISS %: 25.4128  AVERAGE MISS PENALTY: 350.833
LLC5 RFO       ACCESS: 14864  HIT:   139  MISS: 14725  HIT %: 0.935145  MISS %: 99.0649  AVERAGE MISS PENALTY: 686.574
LLC5 PREFETCH  ACCESS: 109059  HIT: 51530  MISS: 57529  HIT %: 47.2497  MISS %: 52.7503  AVERAGE MISS PENALTY: 214.609
LLC5 WRITEBACK ACCESS: 15108  HIT: 13512  MISS:  1596  HIT %: 89.4361  MISS %: 10.5639  AVERAGE MISS PENALTY: 0
LLC5 PREFETCH  REQUESTED:     0  ISSUED:     0  USEFUL:  1691  USELESS: 459341
 USEFUL LOAD PREFETCHES:       1691 PREFETCH ISSUED TO LOWER LEVEL:     558461  ACCURACY: 0.302796
 TIMELY PREFETCHES:       1691 LATE PREFETCHES: 0 DROPPED PREFETCHES: 0
LLC5 AVERAGE MISS LATENCY: 304.568 cycles
LLC6 TOTAL     ACCESS: 144355  HIT: 69720  MISS: 74635  HIT %: 48.2976  MISS %: 51.7024  AVERAGE MISS PENALTY: 303.456
LLC6 LOAD      ACCESS:  4277  HIT:  3417  MISS:   860  HIT %: 79.8924  MISS %: 20.1076  AVERAGE MISS PENALTY: 333.433
LLC6 RFO       ACCESS: 15113  HIT:   388  MISS: 14725  HIT %: 2.56733  MISS %: 97.4327  AVERAGE MISS PENALTY: 663.269
LLC6 PREFETCH  ACCESS: 109509  HIT: 52028  MISS: 57481  HIT %: 47.5103  MISS %: 52.4897  AVERAGE MISS PENALTY: 219.117
LLC6 WRITEBACK ACCESS: 15456  HIT: 13887  MISS:  1569  HIT %: 89.8486  MISS %: 10.1514  AVERAGE MISS PENALTY: 0
LLC6 PREFETCH  REQUESTED:     0  ISSUED:     0  USEFUL:  1881  USELESS: 457942
 USEFUL LOAD PREFETCHES:       1881 PREFETCH ISSUED TO LOWER LEVEL:     833812  ACCURACY: 0.22559
 TIMELY PREFETCHES:       1881 LATE PREFETCHES: 0 DROPPED PREFETCHES: 0
LLC6 AVERAGE MISS LATENCY: 303.456 cycles
LLC7 TOTAL     ACCESS: 146124  HIT: 71257  MISS: 74867  HIT %: 48.7647  MISS %: 51.2353  AVERAGE MISS PENALTY: 302.249
LLC7 LOAD      ACCESS:  3888  HIT:  3026  MISS:   862  HIT %: 77.8292  MISS %: 22.1708  AVERAGE MISS PENALTY: 287.34
LLC7 RFO       ACCESS: 15168  HIT:   443  MISS: 14725  HIT %: 2.92062  MISS %: 97.0794  AVERAGE MISS PENALTY: 664.202
LLC7 PREFETCH  ACCESS: 111305  HIT: 53669  MISS: 57636  HIT %: 48.218  MISS %: 51.782  AVERAGE MISS PENALTY: 218.621
LLC7 WRITEBACK ACCESS: 15763  HIT: 14119  MISS:  1644  HIT %: 89.5705  MISS %: 10.4295  AVERAGE MISS PENALTY: 0
LLC7 PREFETCH  REQUESTED:     0  ISSUED:     0  USEFUL:  1891  USELESS: 459804
 USEFUL LOAD PREFETCHES:       1891 PREFETCH ISSUED TO LOWER LEVEL:     614472  ACCURACY: 0.307744
 TIMELY PREFETCHES:       1891 LATE PREFETCHES: 0 DROPPED PREFETCHES: 0
LLC7 AVERAGE MISS LATENCY: 302.249 cycles
ROI Average ROB Stall Cycles:	5.85301
ROI Total ROB Stalls Cycles:	128671260
ROI TOTAL ROB counter      :	21983772
ROI Average Load ROB Stall Cycles:	12.3674
ROI Total Load ROB Stalls Cycle  :	40139066
ROI Total Load ROB stalls Counter:	3245564
Major fault: 0 Minor fault: 11251








Interconnect Stats 
LINK 0 BW : 0LINK 1 BW : 0LINK 2 BW : 0LINK 3 BW : 0LINK 4 BW : 0LINK 5 BW : 0LINK 6 BW : 0LINK 7 BW : 0
DRAM Statistics
 CHANNEL 0
 RQ ROW_BUFFER_HIT: 1074799  ROW_BUFFER_MISS: 1263898
 DBUS_CONGESTED: 1047577
 WQ ROW_BUFFER_HIT: 94235  ROW_BUFFER_MISS: 378157  FULL:     0

 CHANNEL 1
 RQ ROW_BUFFER_HIT: 1067228  ROW_BUFFER_MISS: 1275554
 DBUS_CONGESTED: 1047577
 WQ ROW_BUFFER_HIT: 93499  ROW_BUFFER_MISS: 379335  FULL:     0

 AVG_CONGESTED_CYCLE: 5
DRAM PAGES: 2097152
Allocated PAGES: 90024
L2C destructor called
L1D destructor called
L1I destructor called
STLB destructor called
DTLB destructor called
ITLB destructor called
L2C destructor called
L1D destructor called
L1I destructor called
STLB destructor called
DTLB destructor called
ITLB destructor called
L2C destructor called
L1D destructor called
L1I destructor called
STLB destructor called
DTLB destructor called
ITLB destructor called
L2C destructor called
L1D destructor called
L1I destructor called
STLB destructor called
DTLB destructor called
ITLB destructor called
L2C destructor called
L1D destructor called
L1I destructor called
STLB destructor called
DTLB destructor called
ITLB destructor called
L2C destructor called
L1D destructor called
L1I destructor called
STLB destructor called
DTLB destructor called
ITLB destructor called
L2C destructor called
L1D destructor called
L1I destructor called
STLB destructor called
DTLB destructor called
ITLB destructor called
L2C destructor called
L1D destructor called
L1I destructor called
STLB destructor called
DTLB destructor called
ITLB destructor called
