
*** ChampSim Multicore Out-of-Order Simulator ***

Warmup Instructions: 200000000
Simulation Instructions: 200000000
Number of CPUs: 8
threads:1

L1I Configuration:
L1I_SET:64
L1I_WAY:8
L1I_RQ_SIZE:64
L1I_WQ_SIZE:64
L1I_PQ_SIZE:8
L1I_MSHR_SIZE:8

L1D Configuration:
L1D_SET:64
L1D_WAY:12
L1D_RQ_SIZE:64
L1D_WQ_SIZE:64
L1D_PQ_SIZE:8
L1D_MSHR_SIZE:16

L2C Configuration:
L2C_SET:1024
L2C_WAY:8
L2C_RQ_SIZE:32
L2C_WQ_SIZE:32
L2C_PQ_SIZE:16
L2C_MSHR_SIZE:32

LLC Configuration:
LLC_SET:2048
LLC_WAY:16
LLC SLICES:8
LLC_RQ_SIZE:64
LLC_WQ_SIZE:64
LLC_PQ_SIZE:32
LLC_MSHR_SIZE:64

Interconnect OFF
Attacker deprioritize is: OFF
Off-chip DRAM Size: 8192 MB Channels: 2 Width: 64-bit Data Rate: 3200 MT/s
PAGE SIZE in KB: 4.000000 
PAGE SIZE in MB: 0.003906 
PAGE offset in bits: 12 
CEASER-S_LLC:0
MIRAGE : 1
CEASER_LATENCY:3
REMAP : OFF
Partitions : 1
Multi-Step : OFF
BFS : OFF

CPU 0 runs /home/anubhav/spec_2017/607.cactuBSSN_s-3477B.champsimtrace.xz
CPU 1 runs /home/anubhav/spec_2017/607.cactuBSSN_s-3477B.champsimtrace.xz
CPU 2 runs /home/anubhav/spec_2017/607.cactuBSSN_s-3477B.champsimtrace.xz
CPU 3 runs /home/anubhav/spec_2017/607.cactuBSSN_s-3477B.champsimtrace.xz
CPU 4 runs /home/anubhav/spec_2017/607.cactuBSSN_s-3477B.champsimtrace.xz
CPU 5 runs /home/anubhav/spec_2017/607.cactuBSSN_s-3477B.champsimtrace.xz
CPU 6 runs /home/anubhav/spec_2017/607.cactuBSSN_s-3477B.champsimtrace.xz
CPU 7 runs /home/anubhav/spec_2017/607.cactuBSSN_s-3477B.champsimtrace.xz
CPU 0 Bimodal branch predictor
Initialize Hawkeye state
Initialize Hawkeye state
Initialize Hawkeye state
Initialize Hawkeye state
Initialize Hawkeye state
Initialize Hawkeye state
Initialize Hawkeye state
Initialize Hawkeye state
CPU 1 Bimodal branch predictor
Initialize Hawkeye state
Initialize Hawkeye state
Initialize Hawkeye state
Initialize Hawkeye state
Initialize Hawkeye state
Initialize Hawkeye state
Initialize Hawkeye state
Initialize Hawkeye state
CPU 2 Bimodal branch predictor
Initialize Hawkeye state
Initialize Hawkeye state
Initialize Hawkeye state
Initialize Hawkeye state
Initialize Hawkeye state
Initialize Hawkeye state
Initialize Hawkeye state
Initialize Hawkeye state
CPU 3 Bimodal branch predictor
Initialize Hawkeye state
Initialize Hawkeye state
Initialize Hawkeye state
Initialize Hawkeye state
Initialize Hawkeye state
Initialize Hawkeye state
Initialize Hawkeye state
Initialize Hawkeye state
CPU 4 Bimodal branch predictor
Initialize Hawkeye state
Initialize Hawkeye state
Initialize Hawkeye state
Initialize Hawkeye state
Initialize Hawkeye state
Initialize Hawkeye state
Initialize Hawkeye state
Initialize Hawkeye state
CPU 5 Bimodal branch predictor
Initialize Hawkeye state
Initialize Hawkeye state
Initialize Hawkeye state
Initialize Hawkeye state
Initialize Hawkeye state
Initialize Hawkeye state
Initialize Hawkeye state
Initialize Hawkeye state
CPU 6 Bimodal branch predictor
Initialize Hawkeye state
Initialize Hawkeye state
Initialize Hawkeye state
Initialize Hawkeye state
Initialize Hawkeye state
Initialize Hawkeye state
Initialize Hawkeye state
Initialize Hawkeye state
CPU 7 Bimodal branch predictor
Initialize Hawkeye state
Initialize Hawkeye state
Initialize Hawkeye state
Initialize Hawkeye state
Initialize Hawkeye state
Initialize Hawkeye state
Initialize Hawkeye state
Initialize Hawkeye state
Heartbeat CPU 3 instructions: 10000002 cycles: 5456788 heartbeat IPC: 1.83258 cumulative IPC: 1.83258 (Simulation time: 0 hr 30 min 22 sec) 
 Total Blocks : 262144 Invalid Blocks : 88835
Heartbeat CPU 0 instructions: 10000002 cycles: 5457377 heartbeat IPC: 1.83238 cumulative IPC: 1.83238 (Simulation time: 0 hr 30 min 22 sec) 
 Total Blocks : 262144 Invalid Blocks : 88834
Heartbeat CPU 5 instructions: 10000002 cycles: 5457560 heartbeat IPC: 1.83232 cumulative IPC: 1.83232 (Simulation time: 0 hr 30 min 22 sec) 
 Total Blocks : 262144 Invalid Blocks : 88831
Heartbeat CPU 4 instructions: 10000002 cycles: 5457826 heartbeat IPC: 1.83223 cumulative IPC: 1.83223 (Simulation time: 0 hr 30 min 22 sec) 
 Total Blocks : 262144 Invalid Blocks : 88827
Heartbeat CPU 2 instructions: 10000002 cycles: 5457885 heartbeat IPC: 1.83221 cumulative IPC: 1.83221 (Simulation time: 0 hr 30 min 22 sec) 
 Total Blocks : 262144 Invalid Blocks : 88827
Heartbeat CPU 7 instructions: 10000002 cycles: 5457939 heartbeat IPC: 1.83219 cumulative IPC: 1.83219 (Simulation time: 0 hr 30 min 22 sec) 
 Total Blocks : 262144 Invalid Blocks : 88826
Heartbeat CPU 6 instructions: 10000002 cycles: 5457970 heartbeat IPC: 1.83218 cumulative IPC: 1.83218 (Simulation time: 0 hr 30 min 22 sec) 
 Total Blocks : 262144 Invalid Blocks : 88826
Heartbeat CPU 1 instructions: 10000002 cycles: 5457992 heartbeat IPC: 1.83218 cumulative IPC: 1.83218 (Simulation time: 0 hr 30 min 23 sec) 
 Total Blocks : 262144 Invalid Blocks : 88826
Heartbeat CPU 3 instructions: 20000000 cycles: 10923900 heartbeat IPC: 1.82912 cumulative IPC: 1.83085 (Simulation time: 1 hr 1 min 23 sec) 
 Total Blocks : 262144 Invalid Blocks : 35845
Heartbeat CPU 7 instructions: 20000000 cycles: 10924529 heartbeat IPC: 1.82929 cumulative IPC: 1.83074 (Simulation time: 1 hr 1 min 23 sec) 
 Total Blocks : 262144 Invalid Blocks : 35843
Heartbeat CPU 0 instructions: 20000000 cycles: 10924569 heartbeat IPC: 1.82909 cumulative IPC: 1.83074 (Simulation time: 1 hr 1 min 23 sec) 
 Total Blocks : 262144 Invalid Blocks : 35843
Heartbeat CPU 5 instructions: 20000000 cycles: 10924702 heartbeat IPC: 1.82911 cumulative IPC: 1.83071 (Simulation time: 1 hr 1 min 23 sec) 
 Total Blocks : 262144 Invalid Blocks : 35843
Heartbeat CPU 4 instructions: 20000000 cycles: 10924952 heartbeat IPC: 1.82911 cumulative IPC: 1.83067 (Simulation time: 1 hr 1 min 23 sec) 
 Total Blocks : 262144 Invalid Blocks : 35841
Heartbeat CPU 2 instructions: 20000000 cycles: 10924977 heartbeat IPC: 1.82913 cumulative IPC: 1.83067 (Simulation time: 1 hr 1 min 23 sec) 
 Total Blocks : 262144 Invalid Blocks : 35841
Heartbeat CPU 6 instructions: 20000000 cycles: 10924997 heartbeat IPC: 1.82915 cumulative IPC: 1.83066 (Simulation time: 1 hr 1 min 24 sec) 
 Total Blocks : 262144 Invalid Blocks : 35841
Heartbeat CPU 1 instructions: 20000000 cycles: 10925129 heartbeat IPC: 1.82911 cumulative IPC: 1.83064 (Simulation time: 1 hr 1 min 24 sec) 
 Total Blocks : 262144 Invalid Blocks : 35841
Heartbeat CPU 3 instructions: 30000000 cycles: 16379790 heartbeat IPC: 1.83288 cumulative IPC: 1.83153 (Simulation time: 1 hr 31 min 55 sec) 
 Total Blocks : 262144 Invalid Blocks : 14485
Heartbeat CPU 7 instructions: 30000000 cycles: 16380432 heartbeat IPC: 1.83288 cumulative IPC: 1.83145 (Simulation time: 1 hr 31 min 56 sec) 
 Total Blocks : 262144 Invalid Blocks : 14485
Heartbeat CPU 0 instructions: 30000000 cycles: 16380474 heartbeat IPC: 1.83288 cumulative IPC: 1.83145 (Simulation time: 1 hr 31 min 56 sec) 
 Total Blocks : 262144 Invalid Blocks : 14485
Heartbeat CPU 5 instructions: 30000000 cycles: 16380695 heartbeat IPC: 1.83285 cumulative IPC: 1.83142 (Simulation time: 1 hr 31 min 56 sec) 
 Total Blocks : 262144 Invalid Blocks : 14485
Heartbeat CPU 4 instructions: 30000000 cycles: 16380932 heartbeat IPC: 1.83285 cumulative IPC: 1.8314 (Simulation time: 1 hr 31 min 56 sec) 
 Total Blocks : 262144 Invalid Blocks : 14481
Heartbeat CPU 2 instructions: 30000000 cycles: 16380995 heartbeat IPC: 1.83284 cumulative IPC: 1.83139 (Simulation time: 1 hr 31 min 56 sec) 
 Total Blocks : 262144 Invalid Blocks : 14481
Heartbeat CPU 6 instructions: 30000000 cycles: 16381028 heartbeat IPC: 1.83283 cumulative IPC: 1.83139 (Simulation time: 1 hr 31 min 56 sec) 
 Total Blocks : 262144 Invalid Blocks : 14481
Heartbeat CPU 1 instructions: 30000000 cycles: 16381160 heartbeat IPC: 1.83283 cumulative IPC: 1.83137 (Simulation time: 1 hr 31 min 56 sec) 
 Total Blocks : 262144 Invalid Blocks : 14480
Heartbeat CPU 3 instructions: 40000001 cycles: 21837291 heartbeat IPC: 1.83234 cumulative IPC: 1.83173 (Simulation time: 2 hr 3 min 38 sec) 
 Total Blocks : 262144 Invalid Blocks : 5893
Heartbeat CPU 7 instructions: 40000001 cycles: 21837822 heartbeat IPC: 1.83238 cumulative IPC: 1.83168 (Simulation time: 2 hr 3 min 39 sec) 
 Total Blocks : 262144 Invalid Blocks : 5893
Heartbeat CPU 0 instructions: 40000001 cycles: 21838023 heartbeat IPC: 1.83232 cumulative IPC: 1.83167 (Simulation time: 2 hr 3 min 39 sec) 
 Total Blocks : 262144 Invalid Blocks : 5893
Heartbeat CPU 5 instructions: 40000001 cycles: 21838325 heartbeat IPC: 1.8323 cumulative IPC: 1.83164 (Simulation time: 2 hr 3 min 39 sec) 
 Total Blocks : 262144 Invalid Blocks : 5892
Heartbeat CPU 2 instructions: 40000001 cycles: 21838505 heartbeat IPC: 1.83234 cumulative IPC: 1.83163 (Simulation time: 2 hr 3 min 39 sec) 
 Total Blocks : 262144 Invalid Blocks : 5892
Heartbeat CPU 4 instructions: 40000001 cycles: 21838568 heartbeat IPC: 1.8323 cumulative IPC: 1.83162 (Simulation time: 2 hr 3 min 39 sec) 
 Total Blocks : 262144 Invalid Blocks : 5892
Heartbeat CPU 6 instructions: 40000001 cycles: 21838592 heartbeat IPC: 1.83232 cumulative IPC: 1.83162 (Simulation time: 2 hr 3 min 39 sec) 
 Total Blocks : 262144 Invalid Blocks : 5892
Heartbeat CPU 1 instructions: 40000001 cycles: 21838701 heartbeat IPC: 1.83233 cumulative IPC: 1.83161 (Simulation time: 2 hr 3 min 39 sec) 
 Total Blocks : 262144 Invalid Blocks : 5892
Heartbeat CPU 3 instructions: 50000001 cycles: 27294772 heartbeat IPC: 1.83235 cumulative IPC: 1.83185 (Simulation time: 2 hr 35 min 8 sec) 
 Total Blocks : 262144 Invalid Blocks : 2058
Heartbeat CPU 7 instructions: 50000001 cycles: 27295222 heartbeat IPC: 1.83237 cumulative IPC: 1.83182 (Simulation time: 2 hr 35 min 8 sec) 
 Total Blocks : 262144 Invalid Blocks : 2058
Heartbeat CPU 0 instructions: 50000001 cycles: 27295537 heartbeat IPC: 1.83234 cumulative IPC: 1.8318 (Simulation time: 2 hr 35 min 8 sec) 
 Total Blocks : 262144 Invalid Blocks : 2058
Heartbeat CPU 4 instructions: 50000001 cycles: 27295958 heartbeat IPC: 1.83238 cumulative IPC: 1.83177 (Simulation time: 2 hr 35 min 8 sec) 
 Total Blocks : 262144 Invalid Blocks : 2058
Heartbeat CPU 5 instructions: 50000001 cycles: 27296036 heartbeat IPC: 1.83227 cumulative IPC: 1.83177 (Simulation time: 2 hr 35 min 8 sec) 
 Total Blocks : 262144 Invalid Blocks : 2058
Heartbeat CPU 2 instructions: 50000001 cycles: 27296159 heartbeat IPC: 1.83229 cumulative IPC: 1.83176 (Simulation time: 2 hr 35 min 8 sec) 
 Total Blocks : 262144 Invalid Blocks : 2058
Heartbeat CPU 1 instructions: 50000001 cycles: 27296188 heartbeat IPC: 1.83235 cumulative IPC: 1.83176 (Simulation time: 2 hr 35 min 8 sec) 
 Total Blocks : 262144 Invalid Blocks : 2058
Heartbeat CPU 6 instructions: 50000001 cycles: 27296213 heartbeat IPC: 1.8323 cumulative IPC: 1.83176 (Simulation time: 2 hr 35 min 8 sec) 
 Total Blocks : 262144 Invalid Blocks : 2058
Heartbeat CPU 3 instructions: 60000002 cycles: 32751737 heartbeat IPC: 1.83252 cumulative IPC: 1.83196 (Simulation time: 3 hr 7 min 8 sec) 
 Total Blocks : 262144 Invalid Blocks : 805
Heartbeat CPU 7 instructions: 60000002 cycles: 32752101 heartbeat IPC: 1.83255 cumulative IPC: 1.83194 (Simulation time: 3 hr 7 min 9 sec) 
 Total Blocks : 262144 Invalid Blocks : 805
Heartbeat CPU 0 instructions: 60000002 cycles: 32752461 heartbeat IPC: 1.83253 cumulative IPC: 1.83192 (Simulation time: 3 hr 7 min 9 sec) 
 Total Blocks : 262144 Invalid Blocks : 805
Heartbeat CPU 2 instructions: 60000002 cycles: 32752796 heartbeat IPC: 1.83263 cumulative IPC: 1.8319 (Simulation time: 3 hr 7 min 9 sec) 
 Total Blocks : 262144 Invalid Blocks : 805
Heartbeat CPU 4 instructions: 60000002 cycles: 32752860 heartbeat IPC: 1.83254 cumulative IPC: 1.8319 (Simulation time: 3 hr 7 min 9 sec) 
 Total Blocks : 262144 Invalid Blocks : 805
Heartbeat CPU 5 instructions: 60000002 cycles: 32753020 heartbeat IPC: 1.83251 cumulative IPC: 1.83189 (Simulation time: 3 hr 7 min 9 sec) 
 Total Blocks : 262144 Invalid Blocks : 805
Heartbeat CPU 6 instructions: 60000002 cycles: 32753038 heartbeat IPC: 1.83257 cumulative IPC: 1.83189 (Simulation time: 3 hr 7 min 9 sec) 
 Total Blocks : 262144 Invalid Blocks : 805
Heartbeat CPU 1 instructions: 60000002 cycles: 32753220 heartbeat IPC: 1.8325 cumulative IPC: 1.83188 (Simulation time: 3 hr 7 min 9 sec) 
 Total Blocks : 262144 Invalid Blocks : 805
Heartbeat CPU 3 instructions: 70000003 cycles: 38210084 heartbeat IPC: 1.83206 cumulative IPC: 1.83198 (Simulation time: 3 hr 39 min 12 sec) 
 Total Blocks : 262144 Invalid Blocks : 295
Heartbeat CPU 7 instructions: 70000003 cycles: 38210522 heartbeat IPC: 1.83203 cumulative IPC: 1.83196 (Simulation time: 3 hr 39 min 12 sec) 
 Total Blocks : 262144 Invalid Blocks : 295
Heartbeat CPU 0 instructions: 70000003 cycles: 38210767 heartbeat IPC: 1.83207 cumulative IPC: 1.83194 (Simulation time: 3 hr 39 min 12 sec) 
 Total Blocks : 262144 Invalid Blocks : 295
Heartbeat CPU 2 instructions: 70000003 cycles: 38211202 heartbeat IPC: 1.83204 cumulative IPC: 1.83192 (Simulation time: 3 hr 39 min 12 sec) 
 Total Blocks : 262144 Invalid Blocks : 295
Heartbeat CPU 4 instructions: 70000003 cycles: 38211214 heartbeat IPC: 1.83205 cumulative IPC: 1.83192 (Simulation time: 3 hr 39 min 12 sec) 
 Total Blocks : 262144 Invalid Blocks : 295
Heartbeat CPU 5 instructions: 70000003 cycles: 38211337 heartbeat IPC: 1.83207 cumulative IPC: 1.83192 (Simulation time: 3 hr 39 min 12 sec) 
 Total Blocks : 262144 Invalid Blocks : 295
Heartbeat CPU 6 instructions: 70000003 cycles: 38211421 heartbeat IPC: 1.83204 cumulative IPC: 1.83191 (Simulation time: 3 hr 39 min 12 sec) 
 Total Blocks : 262144 Invalid Blocks : 295
Heartbeat CPU 1 instructions: 70000003 cycles: 38211540 heartbeat IPC: 1.83207 cumulative IPC: 1.83191 (Simulation time: 3 hr 39 min 12 sec) 
 Total Blocks : 262144 Invalid Blocks : 295
Heartbeat CPU 3 instructions: 80000001 cycles: 43667722 heartbeat IPC: 1.83229 cumulative IPC: 1.83202 (Simulation time: 4 hr 10 min 45 sec) 
 Total Blocks : 262144 Invalid Blocks : 126
Heartbeat CPU 7 instructions: 80000001 cycles: 43668226 heartbeat IPC: 1.83227 cumulative IPC: 1.832 (Simulation time: 4 hr 10 min 45 sec) 
 Total Blocks : 262144 Invalid Blocks : 126
Heartbeat CPU 0 instructions: 80000001 cycles: 43668504 heartbeat IPC: 1.83226 cumulative IPC: 1.83198 (Simulation time: 4 hr 10 min 45 sec) 
 Total Blocks : 262144 Invalid Blocks : 126
Heartbeat CPU 2 instructions: 80000001 cycles: 43668871 heartbeat IPC: 1.83228 cumulative IPC: 1.83197 (Simulation time: 4 hr 10 min 45 sec) 
 Total Blocks : 262144 Invalid Blocks : 126
Heartbeat CPU 5 instructions: 80000001 cycles: 43668944 heartbeat IPC: 1.8323 cumulative IPC: 1.83197 (Simulation time: 4 hr 10 min 45 sec) 
 Total Blocks : 262144 Invalid Blocks : 126
Heartbeat CPU 4 instructions: 80000001 cycles: 43668977 heartbeat IPC: 1.83225 cumulative IPC: 1.83196 (Simulation time: 4 hr 10 min 45 sec) 
 Total Blocks : 262144 Invalid Blocks : 126
Heartbeat CPU 6 instructions: 80000001 cycles: 43669001 heartbeat IPC: 1.83231 cumulative IPC: 1.83196 (Simulation time: 4 hr 10 min 45 sec) 
 Total Blocks : 262144 Invalid Blocks : 126
Heartbeat CPU 1 instructions: 80000001 cycles: 43669240 heartbeat IPC: 1.83227 cumulative IPC: 1.83195 (Simulation time: 4 hr 10 min 45 sec) 
 Total Blocks : 262144 Invalid Blocks : 126
Heartbeat CPU 3 instructions: 90000001 cycles: 49125755 heartbeat IPC: 1.83216 cumulative IPC: 1.83203 (Simulation time: 4 hr 41 min 45 sec) 
 Total Blocks : 262144 Invalid Blocks : 61
Heartbeat CPU 7 instructions: 90000001 cycles: 49126319 heartbeat IPC: 1.83214 cumulative IPC: 1.83201 (Simulation time: 4 hr 41 min 45 sec) 
 Total Blocks : 262144 Invalid Blocks : 61
Heartbeat CPU 0 instructions: 90000001 cycles: 49126371 heartbeat IPC: 1.83222 cumulative IPC: 1.83201 (Simulation time: 4 hr 41 min 45 sec) 
 Total Blocks : 262144 Invalid Blocks : 61
Heartbeat CPU 6 instructions: 90000001 cycles: 49126832 heartbeat IPC: 1.83223 cumulative IPC: 1.83199 (Simulation time: 4 hr 41 min 45 sec) 
 Total Blocks : 262144 Invalid Blocks : 61
Heartbeat CPU 5 instructions: 90000001 cycles: 49126857 heartbeat IPC: 1.8322 cumulative IPC: 1.83199 (Simulation time: 4 hr 41 min 45 sec) 
 Total Blocks : 262144 Invalid Blocks : 61
Heartbeat CPU 2 instructions: 90000001 cycles: 49126883 heartbeat IPC: 1.83217 cumulative IPC: 1.83199 (Simulation time: 4 hr 41 min 45 sec) 
 Total Blocks : 262144 Invalid Blocks : 61
Heartbeat CPU 4 instructions: 90000001 cycles: 49126999 heartbeat IPC: 1.83217 cumulative IPC: 1.83199 (Simulation time: 4 hr 41 min 46 sec) 
 Total Blocks : 262144 Invalid Blocks : 61
Heartbeat CPU 1 instructions: 90000001 cycles: 49127283 heartbeat IPC: 1.83216 cumulative IPC: 1.83198 (Simulation time: 4 hr 41 min 46 sec) 
 Total Blocks : 262144 Invalid Blocks : 61
Heartbeat CPU 3 instructions: 100000003 cycles: 54583389 heartbeat IPC: 1.8323 cumulative IPC: 1.83206 (Simulation time: 5 hr 12 min 30 sec) 
 Total Blocks : 262144 Invalid Blocks : 26
Heartbeat CPU 7 instructions: 100000003 cycles: 54584002 heartbeat IPC: 1.83228 cumulative IPC: 1.83204 (Simulation time: 5 hr 12 min 30 sec) 
 Total Blocks : 262144 Invalid Blocks : 26
Heartbeat CPU 0 instructions: 100000003 cycles: 54584070 heartbeat IPC: 1.83227 cumulative IPC: 1.83204 (Simulation time: 5 hr 12 min 30 sec) 
 Total Blocks : 262144 Invalid Blocks : 26
Heartbeat CPU 6 instructions: 100000003 cycles: 54584425 heartbeat IPC: 1.83231 cumulative IPC: 1.83202 (Simulation time: 5 hr 12 min 30 sec) 
 Total Blocks : 262144 Invalid Blocks : 26
Heartbeat CPU 5 instructions: 100000003 cycles: 54584594 heartbeat IPC: 1.83226 cumulative IPC: 1.83202 (Simulation time: 5 hr 12 min 30 sec) 
 Total Blocks : 262144 Invalid Blocks : 26
Heartbeat CPU 2 instructions: 100000003 cycles: 54584628 heartbeat IPC: 1.83226 cumulative IPC: 1.83202 (Simulation time: 5 hr 12 min 30 sec) 
 Total Blocks : 262144 Invalid Blocks : 26
Heartbeat CPU 4 instructions: 100000003 cycles: 54584771 heartbeat IPC: 1.83225 cumulative IPC: 1.83201 (Simulation time: 5 hr 12 min 30 sec) 
 Total Blocks : 262144 Invalid Blocks : 26
Heartbeat CPU 1 instructions: 100000003 cycles: 54584955 heartbeat IPC: 1.83228 cumulative IPC: 1.83201 (Simulation time: 5 hr 12 min 30 sec) 
 Total Blocks : 262144 Invalid Blocks : 26
Heartbeat CPU 3 instructions: 110000000 cycles: 60040069 heartbeat IPC: 1.83262 cumulative IPC: 1.83211 (Simulation time: 5 hr 43 min 30 sec) 
 Total Blocks : 262144 Invalid Blocks : 8
Heartbeat CPU 7 instructions: 110000000 cycles: 60040675 heartbeat IPC: 1.83262 cumulative IPC: 1.83209 (Simulation time: 5 hr 43 min 30 sec) 
 Total Blocks : 262144 Invalid Blocks : 8
Heartbeat CPU 0 instructions: 110000000 cycles: 60040763 heartbeat IPC: 1.83261 cumulative IPC: 1.83209 (Simulation time: 5 hr 43 min 30 sec) 
 Total Blocks : 262144 Invalid Blocks : 8
Heartbeat CPU 2 instructions: 110000000 cycles: 60041089 heartbeat IPC: 1.83269 cumulative IPC: 1.83208 (Simulation time: 5 hr 43 min 30 sec) 
 Total Blocks : 262144 Invalid Blocks : 8
Heartbeat CPU 4 instructions: 110000000 cycles: 60041171 heartbeat IPC: 1.83271 cumulative IPC: 1.83208 (Simulation time: 5 hr 43 min 31 sec) 
 Total Blocks : 262144 Invalid Blocks : 8
Heartbeat CPU 6 instructions: 110000000 cycles: 60041236 heartbeat IPC: 1.83257 cumulative IPC: 1.83207 (Simulation time: 5 hr 43 min 31 sec) 
 Total Blocks : 262144 Invalid Blocks : 8
Heartbeat CPU 5 instructions: 110000000 cycles: 60041261 heartbeat IPC: 1.83262 cumulative IPC: 1.83207 (Simulation time: 5 hr 43 min 31 sec) 
 Total Blocks : 262144 Invalid Blocks : 8
Heartbeat CPU 1 instructions: 110000000 cycles: 60041588 heartbeat IPC: 1.83263 cumulative IPC: 1.83206 (Simulation time: 5 hr 43 min 31 sec) 
 Total Blocks : 262144 Invalid Blocks : 8
Heartbeat CPU 3 instructions: 120000002 cycles: 65498386 heartbeat IPC: 1.83207 cumulative IPC: 1.83211 (Simulation time: 6 hr 14 min 11 sec) 
 Total Blocks : 262144 Invalid Blocks : 1
Heartbeat CPU 0 instructions: 120000002 cycles: 65499044 heartbeat IPC: 1.83208 cumulative IPC: 1.83209 (Simulation time: 6 hr 14 min 11 sec) 
 Total Blocks : 262144 Invalid Blocks : 1
Heartbeat CPU 7 instructions: 120000002 cycles: 65499105 heartbeat IPC: 1.83203 cumulative IPC: 1.83209 (Simulation time: 6 hr 14 min 11 sec) 
 Total Blocks : 262144 Invalid Blocks : 1
Heartbeat CPU 2 instructions: 120000002 cycles: 65499281 heartbeat IPC: 1.83211 cumulative IPC: 1.83208 (Simulation time: 6 hr 14 min 11 sec) 
 Total Blocks : 262144 Invalid Blocks : 1
Heartbeat CPU 4 instructions: 120000002 cycles: 65499547 heartbeat IPC: 1.83205 cumulative IPC: 1.83207 (Simulation time: 6 hr 14 min 11 sec) 
 Total Blocks : 262144 Invalid Blocks : 1
Heartbeat CPU 6 instructions: 120000002 cycles: 65499595 heartbeat IPC: 1.83205 cumulative IPC: 1.83207 (Simulation time: 6 hr 14 min 11 sec) 
 Total Blocks : 262144 Invalid Blocks : 1
Heartbeat CPU 5 instructions: 120000002 cycles: 65499654 heartbeat IPC: 1.83204 cumulative IPC: 1.83207 (Simulation time: 6 hr 14 min 11 sec) 
 Total Blocks : 262144 Invalid Blocks : 1
Heartbeat CPU 1 instructions: 120000002 cycles: 65499955 heartbeat IPC: 1.83205 cumulative IPC: 1.83206 (Simulation time: 6 hr 14 min 11 sec) 
 Total Blocks : 262144 Invalid Blocks : 1
Heartbeat CPU 3 instructions: 130000001 cycles: 70963253 heartbeat IPC: 1.82987 cumulative IPC: 1.83193 (Simulation time: 6 hr 46 min 6 sec) 
 Total Blocks : 262144 Invalid Blocks : 0
Heartbeat CPU 2 instructions: 130000001 cycles: 70963797 heartbeat IPC: 1.82999 cumulative IPC: 1.83192 (Simulation time: 6 hr 46 min 7 sec) 
 Total Blocks : 262144 Invalid Blocks : 0
Heartbeat CPU 0 instructions: 130000001 cycles: 70963898 heartbeat IPC: 1.82987 cumulative IPC: 1.83192 (Simulation time: 6 hr 46 min 7 sec) 
 Total Blocks : 262144 Invalid Blocks : 0
Heartbeat CPU 7 instructions: 130000001 cycles: 70963921 heartbeat IPC: 1.82989 cumulative IPC: 1.83192 (Simulation time: 6 hr 46 min 7 sec) 
 Total Blocks : 262144 Invalid Blocks : 0
Heartbeat CPU 4 instructions: 130000001 cycles: 70964074 heartbeat IPC: 1.82998 cumulative IPC: 1.83191 (Simulation time: 6 hr 46 min 7 sec) 
 Total Blocks : 262144 Invalid Blocks : 0
Heartbeat CPU 6 instructions: 130000001 cycles: 70964514 heartbeat IPC: 1.82985 cumulative IPC: 1.8319 (Simulation time: 6 hr 46 min 7 sec) 
 Total Blocks : 262144 Invalid Blocks : 0
Heartbeat CPU 5 instructions: 130000001 cycles: 70964546 heartbeat IPC: 1.82986 cumulative IPC: 1.8319 (Simulation time: 6 hr 46 min 7 sec) 
 Total Blocks : 262144 Invalid Blocks : 0
Heartbeat CPU 1 instructions: 130000001 cycles: 70964748 heartbeat IPC: 1.8299 cumulative IPC: 1.8319 (Simulation time: 6 hr 46 min 7 sec) 
 Total Blocks : 262144 Invalid Blocks : 0
Heartbeat CPU 3 instructions: 140000001 cycles: 76420096 heartbeat IPC: 1.83256 cumulative IPC: 1.83198 (Simulation time: 7 hr 18 min 1 sec) 
 Total Blocks : 262144 Invalid Blocks : 0
Heartbeat CPU 2 instructions: 140000001 cycles: 76420500 heartbeat IPC: 1.83261 cumulative IPC: 1.83197 (Simulation time: 7 hr 18 min 1 sec) 
 Total Blocks : 262144 Invalid Blocks : 0
Heartbeat CPU 0 instructions: 140000001 cycles: 76420653 heartbeat IPC: 1.83259 cumulative IPC: 1.83197 (Simulation time: 7 hr 18 min 1 sec) 
 Total Blocks : 262144 Invalid Blocks : 0
Heartbeat CPU 7 instructions: 140000001 cycles: 76420807 heartbeat IPC: 1.83255 cumulative IPC: 1.83196 (Simulation time: 7 hr 18 min 1 sec) 
 Total Blocks : 262144 Invalid Blocks : 0
Heartbeat CPU 4 instructions: 140000001 cycles: 76420956 heartbeat IPC: 1.83255 cumulative IPC: 1.83196 (Simulation time: 7 hr 18 min 1 sec) 
 Total Blocks : 262144 Invalid Blocks : 0
Heartbeat CPU 6 instructions: 140000001 cycles: 76421333 heartbeat IPC: 1.83257 cumulative IPC: 1.83195 (Simulation time: 7 hr 18 min 1 sec) 
 Total Blocks : 262144 Invalid Blocks : 0
Heartbeat CPU 1 instructions: 140000001 cycles: 76421353 heartbeat IPC: 1.83264 cumulative IPC: 1.83195 (Simulation time: 7 hr 18 min 1 sec) 
 Total Blocks : 262144 Invalid Blocks : 0
Heartbeat CPU 5 instructions: 140000001 cycles: 76421415 heartbeat IPC: 1.83255 cumulative IPC: 1.83195 (Simulation time: 7 hr 18 min 1 sec) 
 Total Blocks : 262144 Invalid Blocks : 0
Heartbeat CPU 3 instructions: 150000001 cycles: 81876871 heartbeat IPC: 1.83258 cumulative IPC: 1.83202 (Simulation time: 7 hr 49 min 29 sec) 
 Total Blocks : 262144 Invalid Blocks : 0
Heartbeat CPU 2 instructions: 150000001 cycles: 81877302 heartbeat IPC: 1.83258 cumulative IPC: 1.83201 (Simulation time: 7 hr 49 min 29 sec) 
 Total Blocks : 262144 Invalid Blocks : 0
Heartbeat CPU 0 instructions: 150000001 cycles: 81877469 heartbeat IPC: 1.83257 cumulative IPC: 1.83201 (Simulation time: 7 hr 49 min 29 sec) 
 Total Blocks : 262144 Invalid Blocks : 0
Heartbeat CPU 7 instructions: 150000001 cycles: 81877562 heartbeat IPC: 1.83259 cumulative IPC: 1.832 (Simulation time: 7 hr 49 min 29 sec) 
 Total Blocks : 262144 Invalid Blocks : 0
Heartbeat CPU 4 instructions: 150000001 cycles: 81877716 heartbeat IPC: 1.83259 cumulative IPC: 1.832 (Simulation time: 7 hr 49 min 29 sec) 
 Total Blocks : 262144 Invalid Blocks : 0
Heartbeat CPU 5 instructions: 150000001 cycles: 81878098 heartbeat IPC: 1.83262 cumulative IPC: 1.83199 (Simulation time: 7 hr 49 min 29 sec) 
 Total Blocks : 262144 Invalid Blocks : 0
Heartbeat CPU 1 instructions: 150000001 cycles: 81878192 heartbeat IPC: 1.83256 cumulative IPC: 1.83199 (Simulation time: 7 hr 49 min 29 sec) 
 Total Blocks : 262144 Invalid Blocks : 0
Heartbeat CPU 6 instructions: 150000001 cycles: 81878210 heartbeat IPC: 1.83255 cumulative IPC: 1.83199 (Simulation time: 7 hr 49 min 29 sec) 
 Total Blocks : 262144 Invalid Blocks : 0
Heartbeat CPU 3 instructions: 160000002 cycles: 87333702 heartbeat IPC: 1.83257 cumulative IPC: 1.83205 (Simulation time: 8 hr 18 min 52 sec) 
 Total Blocks : 262144 Invalid Blocks : 0
Heartbeat CPU 2 instructions: 160000002 cycles: 87334212 heartbeat IPC: 1.83254 cumulative IPC: 1.83204 (Simulation time: 8 hr 18 min 52 sec) 
 Total Blocks : 262144 Invalid Blocks : 0
Heartbeat CPU 0 instructions: 160000002 cycles: 87334358 heartbeat IPC: 1.83255 cumulative IPC: 1.83204 (Simulation time: 8 hr 18 min 52 sec) 
 Total Blocks : 262144 Invalid Blocks : 0
Heartbeat CPU 7 instructions: 160000002 cycles: 87334424 heartbeat IPC: 1.83256 cumulative IPC: 1.83204 (Simulation time: 8 hr 18 min 52 sec) 
 Total Blocks : 262144 Invalid Blocks : 0
Heartbeat CPU 4 instructions: 160000002 cycles: 87334587 heartbeat IPC: 1.83255 cumulative IPC: 1.83203 (Simulation time: 8 hr 18 min 52 sec) 
 Total Blocks : 262144 Invalid Blocks : 0
Heartbeat CPU 5 instructions: 160000002 cycles: 87334659 heartbeat IPC: 1.83266 cumulative IPC: 1.83203 (Simulation time: 8 hr 18 min 52 sec) 
 Total Blocks : 262144 Invalid Blocks : 0
Heartbeat CPU 1 instructions: 160000002 cycles: 87334945 heartbeat IPC: 1.83259 cumulative IPC: 1.83203 (Simulation time: 8 hr 18 min 52 sec) 
 Total Blocks : 262144 Invalid Blocks : 0
Heartbeat CPU 6 instructions: 160000002 cycles: 87335090 heartbeat IPC: 1.83255 cumulative IPC: 1.83202 (Simulation time: 8 hr 18 min 52 sec) 
 Total Blocks : 262144 Invalid Blocks : 0
Heartbeat CPU 3 instructions: 170000000 cycles: 92790908 heartbeat IPC: 1.83244 cumulative IPC: 1.83208 (Simulation time: 8 hr 48 min 8 sec) 
 Total Blocks : 262144 Invalid Blocks : 0
Heartbeat CPU 2 instructions: 170000000 cycles: 92791278 heartbeat IPC: 1.83249 cumulative IPC: 1.83207 (Simulation time: 8 hr 48 min 8 sec) 
 Total Blocks : 262144 Invalid Blocks : 0
Heartbeat CPU 0 instructions: 170000000 cycles: 92791574 heartbeat IPC: 1.83244 cumulative IPC: 1.83206 (Simulation time: 8 hr 48 min 8 sec) 
 Total Blocks : 262144 Invalid Blocks : 0
Heartbeat CPU 7 instructions: 170000000 cycles: 92791630 heartbeat IPC: 1.83244 cumulative IPC: 1.83206 (Simulation time: 8 hr 48 min 8 sec) 
 Total Blocks : 262144 Invalid Blocks : 0
Heartbeat CPU 4 instructions: 170000000 cycles: 92791650 heartbeat IPC: 1.83249 cumulative IPC: 1.83206 (Simulation time: 8 hr 48 min 8 sec) 
 Total Blocks : 262144 Invalid Blocks : 0
Heartbeat CPU 5 instructions: 170000000 cycles: 92791756 heartbeat IPC: 1.83248 cumulative IPC: 1.83206 (Simulation time: 8 hr 48 min 8 sec) 
 Total Blocks : 262144 Invalid Blocks : 0
Heartbeat CPU 1 instructions: 170000000 cycles: 92792046 heartbeat IPC: 1.83247 cumulative IPC: 1.83205 (Simulation time: 8 hr 48 min 8 sec) 
 Total Blocks : 262144 Invalid Blocks : 0
Heartbeat CPU 6 instructions: 170000000 cycles: 92792297 heartbeat IPC: 1.83244 cumulative IPC: 1.83205 (Simulation time: 8 hr 48 min 8 sec) 
 Total Blocks : 262144 Invalid Blocks : 0
Heartbeat CPU 3 instructions: 180000003 cycles: 98248092 heartbeat IPC: 1.83245 cumulative IPC: 1.8321 (Simulation time: 9 hr 17 min 19 sec) 
 Total Blocks : 262144 Invalid Blocks : 0
Heartbeat CPU 2 instructions: 180000003 cycles: 98248451 heartbeat IPC: 1.83245 cumulative IPC: 1.83209 (Simulation time: 9 hr 17 min 19 sec) 
 Total Blocks : 262144 Invalid Blocks : 0
Heartbeat CPU 0 instructions: 180000003 cycles: 98248699 heartbeat IPC: 1.83247 cumulative IPC: 1.83209 (Simulation time: 9 hr 17 min 19 sec) 
 Total Blocks : 262144 Invalid Blocks : 0
Heartbeat CPU 7 instructions: 180000003 cycles: 98248817 heartbeat IPC: 1.83245 cumulative IPC: 1.83208 (Simulation time: 9 hr 17 min 19 sec) 
 Total Blocks : 262144 Invalid Blocks : 0
Heartbeat CPU 4 instructions: 180000003 cycles: 98248883 heartbeat IPC: 1.83243 cumulative IPC: 1.83208 (Simulation time: 9 hr 17 min 19 sec) 
 Total Blocks : 262144 Invalid Blocks : 0
Heartbeat CPU 5 instructions: 180000003 cycles: 98248926 heartbeat IPC: 1.83245 cumulative IPC: 1.83208 (Simulation time: 9 hr 17 min 19 sec) 
 Total Blocks : 262144 Invalid Blocks : 0
Heartbeat CPU 1 instructions: 180000003 cycles: 98249300 heartbeat IPC: 1.83242 cumulative IPC: 1.83207 (Simulation time: 9 hr 17 min 19 sec) 
 Total Blocks : 262144 Invalid Blocks : 0
Heartbeat CPU 6 instructions: 180000003 cycles: 98249488 heartbeat IPC: 1.83245 cumulative IPC: 1.83207 (Simulation time: 9 hr 17 min 20 sec) 
 Total Blocks : 262144 Invalid Blocks : 0
Heartbeat CPU 3 instructions: 190000001 cycles: 103705212 heartbeat IPC: 1.83247 cumulative IPC: 1.83212 (Simulation time: 9 hr 45 min 55 sec) 
 Total Blocks : 262144 Invalid Blocks : 0
Heartbeat CPU 2 instructions: 190000001 cycles: 103705599 heartbeat IPC: 1.83246 cumulative IPC: 1.83211 (Simulation time: 9 hr 45 min 56 sec) 
 Total Blocks : 262144 Invalid Blocks : 0
Heartbeat CPU 0 instructions: 190000001 cycles: 103705727 heartbeat IPC: 1.8325 cumulative IPC: 1.83211 (Simulation time: 9 hr 45 min 56 sec) 
 Total Blocks : 262144 Invalid Blocks : 0
Heartbeat CPU 7 instructions: 190000001 cycles: 103705746 heartbeat IPC: 1.83253 cumulative IPC: 1.83211 (Simulation time: 9 hr 45 min 56 sec) 
 Total Blocks : 262144 Invalid Blocks : 0
Heartbeat CPU 4 instructions: 190000001 cycles: 103705827 heartbeat IPC: 1.83253 cumulative IPC: 1.83211 (Simulation time: 9 hr 45 min 56 sec) 
 Total Blocks : 262144 Invalid Blocks : 0
Heartbeat CPU 5 instructions: 190000001 cycles: 103705975 heartbeat IPC: 1.83249 cumulative IPC: 1.8321 (Simulation time: 9 hr 45 min 56 sec) 
 Total Blocks : 262144 Invalid Blocks : 0
Heartbeat CPU 1 instructions: 190000001 cycles: 103706406 heartbeat IPC: 1.83247 cumulative IPC: 1.8321 (Simulation time: 9 hr 45 min 56 sec) 
 Total Blocks : 262144 Invalid Blocks : 0
Heartbeat CPU 6 instructions: 190000001 cycles: 103706536 heartbeat IPC: 1.83249 cumulative IPC: 1.83209 (Simulation time: 9 hr 45 min 56 sec) 
 Total Blocks : 262144 Invalid Blocks : 0
Heartbeat CPU 3 instructions: 200000003 cycles: 109162016 heartbeat IPC: 1.83257 cumulative IPC: 1.83214 (Simulation time: 10 hr 14 min 39 sec) 
 Total Blocks : 262144 Invalid Blocks : 0
Heartbeat CPU 2 instructions: 200000003 cycles: 109162439 heartbeat IPC: 1.83256 cumulative IPC: 1.83213 (Simulation time: 10 hr 14 min 39 sec) 
 Total Blocks : 262144 Invalid Blocks : 0
Heartbeat CPU 4 instructions: 200000003 cycles: 109162524 heartbeat IPC: 1.83261 cumulative IPC: 1.83213 (Simulation time: 10 hr 14 min 39 sec) 
 Total Blocks : 262144 Invalid Blocks : 0
Heartbeat CPU 7 instructions: 200000003 cycles: 109162561 heartbeat IPC: 1.83257 cumulative IPC: 1.83213 (Simulation time: 10 hr 14 min 39 sec) 
 Total Blocks : 262144 Invalid Blocks : 0
Heartbeat CPU 0 instructions: 200000003 cycles: 109162589 heartbeat IPC: 1.83256 cumulative IPC: 1.83213 (Simulation time: 10 hr 14 min 39 sec) 
 Total Blocks : 262144 Invalid Blocks : 0
Heartbeat CPU 5 instructions: 200000003 cycles: 109162841 heartbeat IPC: 1.83255 cumulative IPC: 1.83213 (Simulation time: 10 hr 14 min 39 sec) 
 Total Blocks : 262144 Invalid Blocks : 0
Heartbeat CPU 1 instructions: 200000003 cycles: 109163266 heartbeat IPC: 1.83256 cumulative IPC: 1.83212 (Simulation time: 10 hr 14 min 40 sec) 
 Total Blocks : 262144 Invalid Blocks : 0
Heartbeat CPU 6 instructions: 200000003 cycles: 109163307 heartbeat IPC: 1.83259 cumulative IPC: 1.83212 (Simulation time: 10 hr 14 min 40 sec) 
 Total Blocks : 262144 Invalid Blocks : 0

Warmup complete CPU 0 instructions: 200001701 cycles: 109163307 (Simulation time: 10 hr 14 min 40 sec) 
Warmup complete CPU 1 instructions: 200000098 cycles: 109163307 (Simulation time: 10 hr 14 min 40 sec) 
Warmup complete CPU 2 instructions: 200002047 cycles: 109163307 (Simulation time: 10 hr 14 min 40 sec) 
Warmup complete CPU 3 instructions: 200003094 cycles: 109163307 (Simulation time: 10 hr 14 min 40 sec) 
Warmup complete CPU 4 instructions: 200001829 cycles: 109163307 (Simulation time: 10 hr 14 min 40 sec) 
Warmup complete CPU 5 instructions: 200001147 cycles: 109163307 (Simulation time: 10 hr 14 min 40 sec) 
Warmup complete CPU 6 instructions: 200000003 cycles: 109163307 (Simulation time: 10 hr 14 min 40 sec) 
Warmup complete CPU 7 instructions: 200001744 cycles: 109163306 (Simulation time: 10 hr 14 min 40 sec) 

Heartbeat CPU 3 instructions: 210000000 cycles: 117589587 heartbeat IPC: 1.18658 cumulative IPC: 1.1864 (Simulation time: 10 hr 46 min 27 sec) 
 Total Blocks : 262144 Invalid Blocks : 0
Heartbeat CPU 2 instructions: 210000000 cycles: 117604477 heartbeat IPC: 1.18455 cumulative IPC: 1.18443 (Simulation time: 10 hr 46 min 31 sec) 
 Total Blocks : 262144 Invalid Blocks : 0
Heartbeat CPU 7 instructions: 210000000 cycles: 117613037 heartbeat IPC: 1.18336 cumulative IPC: 1.18326 (Simulation time: 10 hr 46 min 33 sec) 
 Total Blocks : 262144 Invalid Blocks : 0
Heartbeat CPU 0 instructions: 210000000 cycles: 117615484 heartbeat IPC: 1.18303 cumulative IPC: 1.18293 (Simulation time: 10 hr 46 min 33 sec) 
 Total Blocks : 262144 Invalid Blocks : 0
Heartbeat CPU 5 instructions: 210000000 cycles: 117621866 heartbeat IPC: 1.18217 cumulative IPC: 1.1821 (Simulation time: 10 hr 46 min 34 sec) 
 Total Blocks : 262144 Invalid Blocks : 0
Heartbeat CPU 6 instructions: 210000000 cycles: 117628610 heartbeat IPC: 1.18129 cumulative IPC: 1.18129 (Simulation time: 10 hr 46 min 36 sec) 
 Total Blocks : 262144 Invalid Blocks : 0
Heartbeat CPU 4 instructions: 210000000 cycles: 117634828 heartbeat IPC: 1.18032 cumulative IPC: 1.18021 (Simulation time: 10 hr 46 min 37 sec) 
 Total Blocks : 262144 Invalid Blocks : 0
Heartbeat CPU 1 instructions: 210000000 cycles: 117643654 heartbeat IPC: 1.17919 cumulative IPC: 1.17919 (Simulation time: 10 hr 46 min 39 sec) 
 Total Blocks : 262144 Invalid Blocks : 0
Heartbeat CPU 3 instructions: 220000000 cycles: 125999859 heartbeat IPC: 1.18902 cumulative IPC: 1.18771 (Simulation time: 11 hr 17 min 31 sec) 
 Total Blocks : 262144 Invalid Blocks : 0
Heartbeat CPU 2 instructions: 220000000 cycles: 126012522 heartbeat IPC: 1.18934 cumulative IPC: 1.18688 (Simulation time: 11 hr 17 min 34 sec) 
 Total Blocks : 262144 Invalid Blocks : 0
Heartbeat CPU 7 instructions: 220000000 cycles: 126020614 heartbeat IPC: 1.1894 cumulative IPC: 1.18633 (Simulation time: 11 hr 17 min 35 sec) 
 Total Blocks : 262144 Invalid Blocks : 0
Heartbeat CPU 0 instructions: 220000000 cycles: 126029691 heartbeat IPC: 1.18847 cumulative IPC: 1.18569 (Simulation time: 11 hr 17 min 38 sec) 
 Total Blocks : 262144 Invalid Blocks : 0
Heartbeat CPU 5 instructions: 220000000 cycles: 126033631 heartbeat IPC: 1.18881 cumulative IPC: 1.18545 (Simulation time: 11 hr 17 min 38 sec) 
 Total Blocks : 262144 Invalid Blocks : 0
Heartbeat CPU 6 instructions: 220000000 cycles: 126039739 heartbeat IPC: 1.1889 cumulative IPC: 1.18508 (Simulation time: 11 hr 17 min 40 sec) 
 Total Blocks : 262144 Invalid Blocks : 0
Heartbeat CPU 4 instructions: 220000000 cycles: 126043275 heartbeat IPC: 1.18928 cumulative IPC: 1.18473 (Simulation time: 11 hr 17 min 40 sec) 
 Total Blocks : 262144 Invalid Blocks : 0
Heartbeat CPU 1 instructions: 220000000 cycles: 126051269 heartbeat IPC: 1.1894 cumulative IPC: 1.18427 (Simulation time: 11 hr 17 min 42 sec) 
 Total Blocks : 262144 Invalid Blocks : 0
Heartbeat CPU 3 instructions: 230000003 cycles: 134408531 heartbeat IPC: 1.18925 cumulative IPC: 1.18822 (Simulation time: 11 hr 46 min 46 sec) 
 Total Blocks : 262144 Invalid Blocks : 0
Heartbeat CPU 2 instructions: 230000003 cycles: 134417243 heartbeat IPC: 1.18981 cumulative IPC: 1.18785 (Simulation time: 11 hr 46 min 48 sec) 
 Total Blocks : 262144 Invalid Blocks : 0
Heartbeat CPU 7 instructions: 230000003 cycles: 134426388 heartbeat IPC: 1.18966 cumulative IPC: 1.18743 (Simulation time: 11 hr 46 min 49 sec) 
 Total Blocks : 262144 Invalid Blocks : 0
Heartbeat CPU 0 instructions: 230000003 cycles: 134436090 heartbeat IPC: 1.18957 cumulative IPC: 1.18698 (Simulation time: 11 hr 46 min 51 sec) 
 Total Blocks : 262144 Invalid Blocks : 0
Heartbeat CPU 5 instructions: 230000003 cycles: 134446533 heartbeat IPC: 1.18865 cumulative IPC: 1.18651 (Simulation time: 11 hr 46 min 53 sec) 
 Total Blocks : 262144 Invalid Blocks : 0
Heartbeat CPU 6 instructions: 230000003 cycles: 134461667 heartbeat IPC: 1.18738 cumulative IPC: 1.18585 (Simulation time: 11 hr 46 min 56 sec) 
 Total Blocks : 262144 Invalid Blocks : 0
Heartbeat CPU 4 instructions: 230000003 cycles: 134466230 heartbeat IPC: 1.18723 cumulative IPC: 1.18556 (Simulation time: 11 hr 46 min 58 sec) 
 Total Blocks : 262144 Invalid Blocks : 0
Heartbeat CPU 1 instructions: 230000003 cycles: 134470333 heartbeat IPC: 1.18778 cumulative IPC: 1.18544 (Simulation time: 11 hr 46 min 58 sec) 
 Total Blocks : 262144 Invalid Blocks : 0
Heartbeat CPU 3 instructions: 240000000 cycles: 142823679 heartbeat IPC: 1.18833 cumulative IPC: 1.18825 (Simulation time: 12 hr 16 min 27 sec) 
 Total Blocks : 262144 Invalid Blocks : 0
Heartbeat CPU 2 instructions: 240000000 cycles: 142825469 heartbeat IPC: 1.18931 cumulative IPC: 1.18822 (Simulation time: 12 hr 16 min 28 sec) 
 Total Blocks : 262144 Invalid Blocks : 0
Heartbeat CPU 7 instructions: 240000000 cycles: 142832748 heartbeat IPC: 1.18958 cumulative IPC: 1.18797 (Simulation time: 12 hr 16 min 30 sec) 
 Total Blocks : 262144 Invalid Blocks : 0
Heartbeat CPU 0 instructions: 240000000 cycles: 142841145 heartbeat IPC: 1.18976 cumulative IPC: 1.18767 (Simulation time: 12 hr 16 min 31 sec) 
 Total Blocks : 262144 Invalid Blocks : 0
Heartbeat CPU 5 instructions: 240000000 cycles: 142853275 heartbeat IPC: 1.18952 cumulative IPC: 1.18726 (Simulation time: 12 hr 16 min 34 sec) 
 Total Blocks : 262144 Invalid Blocks : 0
Heartbeat CPU 6 instructions: 240000000 cycles: 142875642 heartbeat IPC: 1.1885 cumulative IPC: 1.18651 (Simulation time: 12 hr 16 min 39 sec) 
 Total Blocks : 262144 Invalid Blocks : 0
Heartbeat CPU 4 instructions: 240000000 cycles: 142880780 heartbeat IPC: 1.18842 cumulative IPC: 1.18627 (Simulation time: 12 hr 16 min 40 sec) 
 Total Blocks : 262144 Invalid Blocks : 0
Heartbeat CPU 1 instructions: 240000000 cycles: 142891104 heartbeat IPC: 1.18754 cumulative IPC: 1.18596 (Simulation time: 12 hr 16 min 42 sec) 
 Total Blocks : 262144 Invalid Blocks : 0
Heartbeat CPU 3 instructions: 250000002 cycles: 151224482 heartbeat IPC: 1.19036 cumulative IPC: 1.18867 (Simulation time: 12 hr 46 min 10 sec) 
 Total Blocks : 262144 Invalid Blocks : 0
Heartbeat CPU 2 instructions: 250000002 cycles: 151232297 heartbeat IPC: 1.18951 cumulative IPC: 1.18848 (Simulation time: 12 hr 46 min 11 sec) 
 Total Blocks : 262144 Invalid Blocks : 0
Heartbeat CPU 7 instructions: 250000002 cycles: 151242210 heartbeat IPC: 1.18914 cumulative IPC: 1.1882 (Simulation time: 12 hr 46 min 13 sec) 
 Total Blocks : 262144 Invalid Blocks : 0
Heartbeat CPU 0 instructions: 250000002 cycles: 151250050 heartbeat IPC: 1.18922 cumulative IPC: 1.18798 (Simulation time: 12 hr 46 min 14 sec) 
 Total Blocks : 262144 Invalid Blocks : 0
Heartbeat CPU 5 instructions: 250000002 cycles: 151257282 heartbeat IPC: 1.18991 cumulative IPC: 1.18779 (Simulation time: 12 hr 46 min 16 sec) 
 Total Blocks : 262144 Invalid Blocks : 0
Heartbeat CPU 6 instructions: 250000002 cycles: 151275867 heartbeat IPC: 1.19044 cumulative IPC: 1.18729 (Simulation time: 12 hr 46 min 19 sec) 
 Total Blocks : 262144 Invalid Blocks : 0
Heartbeat CPU 4 instructions: 250000002 cycles: 151287902 heartbeat IPC: 1.18947 cumulative IPC: 1.18691 (Simulation time: 12 hr 46 min 22 sec) 
 Total Blocks : 262144 Invalid Blocks : 0
Heartbeat CPU 1 instructions: 250000002 cycles: 151295535 heartbeat IPC: 1.18985 cumulative IPC: 1.18674 (Simulation time: 12 hr 46 min 23 sec) 
 Total Blocks : 262144 Invalid Blocks : 0
Heartbeat CPU 3 instructions: 260000002 cycles: 159638521 heartbeat IPC: 1.18849 cumulative IPC: 1.18864 (Simulation time: 13 hr 14 min 57 sec) 
 Total Blocks : 262144 Invalid Blocks : 0
Heartbeat CPU 7 instructions: 260000002 cycles: 159646965 heartbeat IPC: 1.1898 cumulative IPC: 1.18847 (Simulation time: 13 hr 14 min 58 sec) 
 Total Blocks : 262144 Invalid Blocks : 0
Heartbeat CPU 2 instructions: 260000002 cycles: 159654341 heartbeat IPC: 1.18736 cumulative IPC: 1.18829 (Simulation time: 13 hr 15 min 0 sec) 
 Total Blocks : 262144 Invalid Blocks : 0
Heartbeat CPU 0 instructions: 260000002 cycles: 159661797 heartbeat IPC: 1.18881 cumulative IPC: 1.18812 (Simulation time: 13 hr 15 min 1 sec) 
 Total Blocks : 262144 Invalid Blocks : 0
Heartbeat CPU 5 instructions: 260000002 cycles: 159668953 heartbeat IPC: 1.18882 cumulative IPC: 1.18796 (Simulation time: 13 hr 15 min 2 sec) 
 Total Blocks : 262144 Invalid Blocks : 0
Heartbeat CPU 6 instructions: 260000002 cycles: 159676169 heartbeat IPC: 1.19043 cumulative IPC: 1.18782 (Simulation time: 13 hr 15 min 4 sec) 
 Total Blocks : 262144 Invalid Blocks : 0
Heartbeat CPU 4 instructions: 260000002 cycles: 159701895 heartbeat IPC: 1.1885 cumulative IPC: 1.18718 (Simulation time: 13 hr 15 min 8 sec) 
 Total Blocks : 262144 Invalid Blocks : 0
Heartbeat CPU 1 instructions: 260000002 cycles: 159712177 heartbeat IPC: 1.18812 cumulative IPC: 1.18697 (Simulation time: 13 hr 15 min 10 sec) 
 Total Blocks : 262144 Invalid Blocks : 0
Heartbeat CPU 3 instructions: 270000003 cycles: 168044496 heartbeat IPC: 1.18963 cumulative IPC: 1.18878 (Simulation time: 13 hr 42 min 34 sec) 
 Total Blocks : 262144 Invalid Blocks : 0
Heartbeat CPU 7 instructions: 270000003 cycles: 168053872 heartbeat IPC: 1.1895 cumulative IPC: 1.18862 (Simulation time: 13 hr 42 min 36 sec) 
 Total Blocks : 262144 Invalid Blocks : 0
Heartbeat CPU 2 instructions: 270000003 cycles: 168063898 heartbeat IPC: 1.18912 cumulative IPC: 1.18841 (Simulation time: 13 hr 42 min 38 sec) 
 Total Blocks : 262144 Invalid Blocks : 0
Heartbeat CPU 5 instructions: 270000003 cycles: 168072821 heartbeat IPC: 1.18993 cumulative IPC: 1.18824 (Simulation time: 13 hr 42 min 40 sec) 
 Total Blocks : 262144 Invalid Blocks : 0
Heartbeat CPU 0 instructions: 270000003 cycles: 168075647 heartbeat IPC: 1.18852 cumulative IPC: 1.18818 (Simulation time: 13 hr 42 min 41 sec) 
 Total Blocks : 262144 Invalid Blocks : 0
Heartbeat CPU 6 instructions: 270000003 cycles: 168080653 heartbeat IPC: 1.18984 cumulative IPC: 1.18811 (Simulation time: 13 hr 42 min 42 sec) 
 Total Blocks : 262144 Invalid Blocks : 0
Heartbeat CPU 4 instructions: 270000003 cycles: 168103065 heartbeat IPC: 1.19031 cumulative IPC: 1.18762 (Simulation time: 13 hr 42 min 47 sec) 
 Total Blocks : 262144 Invalid Blocks : 0
Heartbeat CPU 1 instructions: 270000003 cycles: 168134304 heartbeat IPC: 1.18735 cumulative IPC: 1.18702 (Simulation time: 13 hr 42 min 53 sec) 
 Total Blocks : 262144 Invalid Blocks : 0
Heartbeat CPU 3 instructions: 280000000 cycles: 176448148 heartbeat IPC: 1.18996 cumulative IPC: 1.18893 (Simulation time: 14 hr 10 min 32 sec) 
 Total Blocks : 262144 Invalid Blocks : 0
Heartbeat CPU 7 instructions: 280000000 cycles: 176458720 heartbeat IPC: 1.18979 cumulative IPC: 1.18876 (Simulation time: 14 hr 10 min 34 sec) 
 Total Blocks : 262144 Invalid Blocks : 0
Heartbeat CPU 2 instructions: 280000000 cycles: 176481379 heartbeat IPC: 1.188 cumulative IPC: 1.18836 (Simulation time: 14 hr 10 min 38 sec) 
 Total Blocks : 262144 Invalid Blocks : 0
Heartbeat CPU 5 instructions: 280000000 cycles: 176486488 heartbeat IPC: 1.18854 cumulative IPC: 1.18828 (Simulation time: 14 hr 10 min 39 sec) 
 Total Blocks : 262144 Invalid Blocks : 0
Heartbeat CPU 0 instructions: 280000000 cycles: 176489171 heartbeat IPC: 1.18856 cumulative IPC: 1.18823 (Simulation time: 14 hr 10 min 40 sec) 
 Total Blocks : 262144 Invalid Blocks : 0
Heartbeat CPU 6 instructions: 280000000 cycles: 176493583 heartbeat IPC: 1.18865 cumulative IPC: 1.18817 (Simulation time: 14 hr 10 min 40 sec) 
 Total Blocks : 262144 Invalid Blocks : 0
Heartbeat CPU 4 instructions: 280000000 cycles: 176514061 heartbeat IPC: 1.18892 cumulative IPC: 1.18778 (Simulation time: 14 hr 10 min 44 sec) 
 Total Blocks : 262144 Invalid Blocks : 0
Heartbeat CPU 1 instructions: 280000000 cycles: 176543917 heartbeat IPC: 1.18912 cumulative IPC: 1.18728 (Simulation time: 14 hr 10 min 50 sec) 
 Total Blocks : 262144 Invalid Blocks : 0
Heartbeat CPU 3 instructions: 290000003 cycles: 184850487 heartbeat IPC: 1.19015 cumulative IPC: 1.18906 (Simulation time: 14 hr 38 min 5 sec) 
 Total Blocks : 262144 Invalid Blocks : 0
Heartbeat CPU 7 instructions: 290000003 cycles: 184857594 heartbeat IPC: 1.19064 cumulative IPC: 1.18897 (Simulation time: 14 hr 38 min 6 sec) 
 Total Blocks : 262144 Invalid Blocks : 0
Heartbeat CPU 2 instructions: 290000003 cycles: 184885709 heartbeat IPC: 1.18986 cumulative IPC: 1.18852 (Simulation time: 14 hr 38 min 11 sec) 
 Total Blocks : 262144 Invalid Blocks : 0
Heartbeat CPU 5 instructions: 290000003 cycles: 184889074 heartbeat IPC: 1.19011 cumulative IPC: 1.18848 (Simulation time: 14 hr 38 min 12 sec) 
 Total Blocks : 262144 Invalid Blocks : 0
Heartbeat CPU 0 instructions: 290000003 cycles: 184896184 heartbeat IPC: 1.18948 cumulative IPC: 1.18836 (Simulation time: 14 hr 38 min 13 sec) 
 Total Blocks : 262144 Invalid Blocks : 0
Heartbeat CPU 6 instructions: 290000003 cycles: 184903009 heartbeat IPC: 1.18914 cumulative IPC: 1.18828 (Simulation time: 14 hr 38 min 14 sec) 
 Total Blocks : 262144 Invalid Blocks : 0
Heartbeat CPU 4 instructions: 290000003 cycles: 184909891 heartbeat IPC: 1.19107 cumulative IPC: 1.18815 (Simulation time: 14 hr 38 min 16 sec) 
 Total Blocks : 262144 Invalid Blocks : 0
Heartbeat CPU 1 instructions: 290000003 cycles: 184947904 heartbeat IPC: 1.18991 cumulative IPC: 1.18758 (Simulation time: 14 hr 38 min 23 sec) 
 Total Blocks : 262144 Invalid Blocks : 0
Heartbeat CPU 3 instructions: 300000001 cycles: 193258704 heartbeat IPC: 1.18931 cumulative IPC: 1.18909 (Simulation time: 15 hr 6 min 12 sec) 
 Total Blocks : 262144 Invalid Blocks : 0
Heartbeat CPU 7 instructions: 300000001 cycles: 193282026 heartbeat IPC: 1.18702 cumulative IPC: 1.18878 (Simulation time: 15 hr 6 min 16 sec) 
 Total Blocks : 262144 Invalid Blocks : 0
Heartbeat CPU 2 instructions: 300000001 cycles: 193285333 heartbeat IPC: 1.19053 cumulative IPC: 1.18872 (Simulation time: 15 hr 6 min 17 sec) 
 Total Blocks : 262144 Invalid Blocks : 0
Heartbeat CPU 5 instructions: 300000001 cycles: 193298094 heartbeat IPC: 1.1892 cumulative IPC: 1.18856 (Simulation time: 15 hr 6 min 19 sec) 
 Total Blocks : 262144 Invalid Blocks : 0
Heartbeat CPU 0 instructions: 300000001 cycles: 193312989 heartbeat IPC: 1.1881 cumulative IPC: 1.18834 (Simulation time: 15 hr 6 min 22 sec) 
 Total Blocks : 262144 Invalid Blocks : 0
Heartbeat CPU 6 instructions: 300000001 cycles: 193315981 heartbeat IPC: 1.18864 cumulative IPC: 1.18832 (Simulation time: 15 hr 6 min 23 sec) 
 Total Blocks : 262144 Invalid Blocks : 0
Heartbeat CPU 4 instructions: 300000001 cycles: 193324725 heartbeat IPC: 1.18838 cumulative IPC: 1.18817 (Simulation time: 15 hr 6 min 24 sec) 
 Total Blocks : 262144 Invalid Blocks : 0
Heartbeat CPU 1 instructions: 300000001 cycles: 193367271 heartbeat IPC: 1.18774 cumulative IPC: 1.18759 (Simulation time: 15 hr 6 min 32 sec) 
 Total Blocks : 262144 Invalid Blocks : 0
Heartbeat CPU 3 instructions: 310000003 cycles: 201668029 heartbeat IPC: 1.18916 cumulative IPC: 1.1891 (Simulation time: 15 hr 33 min 30 sec) 
 Total Blocks : 262144 Invalid Blocks : 0
Heartbeat CPU 7 instructions: 310000003 cycles: 201687408 heartbeat IPC: 1.18971 cumulative IPC: 1.18886 (Simulation time: 15 hr 33 min 34 sec) 
 Total Blocks : 262144 Invalid Blocks : 0
Heartbeat CPU 2 instructions: 310000003 cycles: 201701898 heartbeat IPC: 1.18813 cumulative IPC: 1.18867 (Simulation time: 15 hr 33 min 36 sec) 
 Total Blocks : 262144 Invalid Blocks : 0
Heartbeat CPU 0 instructions: 310000003 cycles: 201723652 heartbeat IPC: 1.18897 cumulative IPC: 1.1884 (Simulation time: 15 hr 33 min 41 sec) 
 Total Blocks : 262144 Invalid Blocks : 0
Heartbeat CPU 5 instructions: 310000003 cycles: 201732387 heartbeat IPC: 1.18564 cumulative IPC: 1.18829 (Simulation time: 15 hr 33 min 42 sec) 
 Total Blocks : 262144 Invalid Blocks : 0
Heartbeat CPU 6 instructions: 310000003 cycles: 201733333 heartbeat IPC: 1.18802 cumulative IPC: 1.18829 (Simulation time: 15 hr 33 min 42 sec) 
 Total Blocks : 262144 Invalid Blocks : 0
Heartbeat CPU 4 instructions: 310000003 cycles: 201783148 heartbeat IPC: 1.18225 cumulative IPC: 1.18763 (Simulation time: 15 hr 33 min 52 sec) 
 Total Blocks : 262144 Invalid Blocks : 0
Heartbeat CPU 1 instructions: 310000003 cycles: 201786667 heartbeat IPC: 1.18773 cumulative IPC: 1.1876 (Simulation time: 15 hr 33 min 53 sec) 
 Total Blocks : 262144 Invalid Blocks : 0
Heartbeat CPU 3 instructions: 320000000 cycles: 210086450 heartbeat IPC: 1.18787 cumulative IPC: 1.18899 (Simulation time: 16 hr 1 min 11 sec) 
 Total Blocks : 262144 Invalid Blocks : 0
Heartbeat CPU 7 instructions: 320000000 cycles: 210087727 heartbeat IPC: 1.19043 cumulative IPC: 1.18899 (Simulation time: 16 hr 1 min 11 sec) 
 Total Blocks : 262144 Invalid Blocks : 0
Heartbeat CPU 2 instructions: 320000000 cycles: 210115868 heartbeat IPC: 1.1885 cumulative IPC: 1.18866 (Simulation time: 16 hr 1 min 16 sec) 
 Total Blocks : 262144 Invalid Blocks : 0
Heartbeat CPU 0 instructions: 320000000 cycles: 210129836 heartbeat IPC: 1.1896 cumulative IPC: 1.1885 (Simulation time: 16 hr 1 min 19 sec) 
 Total Blocks : 262144 Invalid Blocks : 0
Heartbeat CPU 5 instructions: 320000000 cycles: 210142435 heartbeat IPC: 1.18905 cumulative IPC: 1.18835 (Simulation time: 16 hr 1 min 22 sec) 
 Total Blocks : 262144 Invalid Blocks : 0
Heartbeat CPU 6 instructions: 320000000 cycles: 210146384 heartbeat IPC: 1.18863 cumulative IPC: 1.18832 (Simulation time: 16 hr 1 min 23 sec) 
 Total Blocks : 262144 Invalid Blocks : 0
Heartbeat CPU 4 instructions: 320000000 cycles: 210210048 heartbeat IPC: 1.18668 cumulative IPC: 1.18755 (Simulation time: 16 hr 1 min 35 sec) 
 Total Blocks : 262144 Invalid Blocks : 0
Heartbeat CPU 1 instructions: 320000000 cycles: 210224777 heartbeat IPC: 1.1851 cumulative IPC: 1.1874 (Simulation time: 16 hr 1 min 38 sec) 
 Total Blocks : 262144 Invalid Blocks : 0
Heartbeat CPU 3 instructions: 330000000 cycles: 218501212 heartbeat IPC: 1.18839 cumulative IPC: 1.18895 (Simulation time: 16 hr 28 min 37 sec) 
 Total Blocks : 262144 Invalid Blocks : 0
Heartbeat CPU 7 instructions: 330000000 cycles: 218507712 heartbeat IPC: 1.18765 cumulative IPC: 1.18889 (Simulation time: 16 hr 28 min 38 sec) 
 Total Blocks : 262144 Invalid Blocks : 0
Heartbeat CPU 2 instructions: 330000000 cycles: 218535728 heartbeat IPC: 1.18767 cumulative IPC: 1.18858 (Simulation time: 16 hr 28 min 43 sec) 
 Total Blocks : 262144 Invalid Blocks : 0
Heartbeat CPU 0 instructions: 330000000 cycles: 218546238 heartbeat IPC: 1.18816 cumulative IPC: 1.18847 (Simulation time: 16 hr 28 min 45 sec) 
 Total Blocks : 262144 Invalid Blocks : 0
Heartbeat CPU 5 instructions: 330000000 cycles: 218567925 heartbeat IPC: 1.18687 cumulative IPC: 1.18824 (Simulation time: 16 hr 28 min 48 sec) 
 Total Blocks : 262144 Invalid Blocks : 0
Heartbeat CPU 6 instructions: 330000000 cycles: 218569809 heartbeat IPC: 1.18717 cumulative IPC: 1.18823 (Simulation time: 16 hr 28 min 49 sec) 
 Total Blocks : 262144 Invalid Blocks : 0
Heartbeat CPU 4 instructions: 330000000 cycles: 218639043 heartbeat IPC: 1.18638 cumulative IPC: 1.18746 (Simulation time: 16 hr 28 min 58 sec) 
 Total Blocks : 262144 Invalid Blocks : 0
Heartbeat CPU 1 instructions: 330000000 cycles: 218664093 heartbeat IPC: 1.18493 cumulative IPC: 1.18721 (Simulation time: 16 hr 29 min 3 sec) 
 Total Blocks : 262144 Invalid Blocks : 0
Heartbeat CPU 7 instructions: 340000002 cycles: 226914821 heartbeat IPC: 1.18947 cumulative IPC: 1.18893 (Simulation time: 16 hr 55 min 24 sec) 
 Total Blocks : 262144 Invalid Blocks : 0
Heartbeat CPU 3 instructions: 340000002 cycles: 226924755 heartbeat IPC: 1.18715 cumulative IPC: 1.18882 (Simulation time: 16 hr 55 min 26 sec) 
 Total Blocks : 262144 Invalid Blocks : 0
Heartbeat CPU 2 instructions: 340000002 cycles: 226939602 heartbeat IPC: 1.18993 cumulative IPC: 1.18868 (Simulation time: 16 hr 55 min 29 sec) 
 Total Blocks : 262144 Invalid Blocks : 0
Heartbeat CPU 0 instructions: 340000002 cycles: 226963250 heartbeat IPC: 1.18807 cumulative IPC: 1.18844 (Simulation time: 16 hr 55 min 33 sec) 
 Total Blocks : 262144 Invalid Blocks : 0
Heartbeat CPU 6 instructions: 340000002 cycles: 226983991 heartbeat IPC: 1.18847 cumulative IPC: 1.18825 (Simulation time: 16 hr 55 min 37 sec) 
 Total Blocks : 262144 Invalid Blocks : 0
Heartbeat CPU 5 instructions: 340000002 cycles: 226995266 heartbeat IPC: 1.18661 cumulative IPC: 1.18812 (Simulation time: 16 hr 55 min 39 sec) 
 Total Blocks : 262144 Invalid Blocks : 0
Heartbeat CPU 4 instructions: 340000002 cycles: 227059564 heartbeat IPC: 1.18758 cumulative IPC: 1.18747 (Simulation time: 16 hr 55 min 51 sec) 
 Total Blocks : 262144 Invalid Blocks : 0
Heartbeat CPU 1 instructions: 340000002 cycles: 227079829 heartbeat IPC: 1.18825 cumulative IPC: 1.18728 (Simulation time: 16 hr 55 min 55 sec) 
 Total Blocks : 262144 Invalid Blocks : 0
Heartbeat CPU 7 instructions: 350000003 cycles: 235335689 heartbeat IPC: 1.18753 cumulative IPC: 1.18884 (Simulation time: 17 hr 22 min 37 sec) 
 Total Blocks : 262144 Invalid Blocks : 0
Heartbeat CPU 3 instructions: 350000003 cycles: 235342960 heartbeat IPC: 1.1879 cumulative IPC: 1.18876 (Simulation time: 17 hr 22 min 39 sec) 
 Total Blocks : 262144 Invalid Blocks : 0
Heartbeat CPU 2 instructions: 350000003 cycles: 235351642 heartbeat IPC: 1.18877 cumulative IPC: 1.18868 (Simulation time: 17 hr 22 min 41 sec) 
 Total Blocks : 262144 Invalid Blocks : 0
Heartbeat CPU 0 instructions: 350000003 cycles: 235362137 heartbeat IPC: 1.19063 cumulative IPC: 1.18859 (Simulation time: 17 hr 22 min 43 sec) 
 Total Blocks : 262144 Invalid Blocks : 0
Heartbeat CPU 6 instructions: 350000003 cycles: 235385702 heartbeat IPC: 1.19023 cumulative IPC: 1.18838 (Simulation time: 17 hr 22 min 47 sec) 
 Total Blocks : 262144 Invalid Blocks : 0
Heartbeat CPU 5 instructions: 350000003 cycles: 235405781 heartbeat IPC: 1.18899 cumulative IPC: 1.18818 (Simulation time: 17 hr 22 min 51 sec) 
 Total Blocks : 262144 Invalid Blocks : 0
Heartbeat CPU 4 instructions: 350000003 cycles: 235478125 heartbeat IPC: 1.18785 cumulative IPC: 1.18749 (Simulation time: 17 hr 23 min 6 sec) 
 Total Blocks : 262144 Invalid Blocks : 0
Heartbeat CPU 1 instructions: 350000003 cycles: 235504814 heartbeat IPC: 1.18695 cumulative IPC: 1.18726 (Simulation time: 17 hr 23 min 11 sec) 
 Total Blocks : 262144 Invalid Blocks : 0
Heartbeat CPU 7 instructions: 360000000 cycles: 243867637 heartbeat IPC: 1.17206 cumulative IPC: 1.18777 (Simulation time: 17 hr 51 min 33 sec) 
 Total Blocks : 262144 Invalid Blocks : 0
Heartbeat CPU 3 instructions: 360000000 cycles: 243903036 heartbeat IPC: 1.16821 cumulative IPC: 1.18745 (Simulation time: 17 hr 51 min 40 sec) 
 Total Blocks : 262144 Invalid Blocks : 0
Heartbeat CPU 2 instructions: 360000000 cycles: 243907988 heartbeat IPC: 1.16872 cumulative IPC: 1.18742 (Simulation time: 17 hr 51 min 40 sec) 
 Total Blocks : 262144 Invalid Blocks : 0
Heartbeat CPU 0 instructions: 360000000 cycles: 243913711 heartbeat IPC: 1.16938 cumulative IPC: 1.18737 (Simulation time: 17 hr 51 min 41 sec) 
 Total Blocks : 262144 Invalid Blocks : 0
Heartbeat CPU 6 instructions: 360000000 cycles: 243930274 heartbeat IPC: 1.17033 cumulative IPC: 1.18723 (Simulation time: 17 hr 51 min 43 sec) 
 Total Blocks : 262144 Invalid Blocks : 0
Heartbeat CPU 5 instructions: 360000000 cycles: 243961163 heartbeat IPC: 1.16885 cumulative IPC: 1.18695 (Simulation time: 17 hr 51 min 48 sec) 
 Total Blocks : 262144 Invalid Blocks : 0
Heartbeat CPU 4 instructions: 360000000 cycles: 244043575 heartbeat IPC: 1.16748 cumulative IPC: 1.18622 (Simulation time: 17 hr 52 min 3 sec) 
 Total Blocks : 262144 Invalid Blocks : 0
Heartbeat CPU 1 instructions: 360000000 cycles: 244069483 heartbeat IPC: 1.16759 cumulative IPC: 1.18601 (Simulation time: 17 hr 52 min 7 sec) 
 Total Blocks : 262144 Invalid Blocks : 0
Heartbeat CPU 7 instructions: 370000000 cycles: 252258678 heartbeat IPC: 1.19175 cumulative IPC: 1.18801 (Simulation time: 18 hr 18 min 48 sec) 
 Total Blocks : 262144 Invalid Blocks : 0
Heartbeat CPU 3 instructions: 370000000 cycles: 252294865 heartbeat IPC: 1.19164 cumulative IPC: 1.1877 (Simulation time: 18 hr 18 min 54 sec) 
 Total Blocks : 262144 Invalid Blocks : 0
Heartbeat CPU 2 instructions: 370000000 cycles: 252298798 heartbeat IPC: 1.19178 cumulative IPC: 1.18767 (Simulation time: 18 hr 18 min 55 sec) 
 Total Blocks : 262144 Invalid Blocks : 0
Heartbeat CPU 0 instructions: 370000000 cycles: 252311339 heartbeat IPC: 1.19081 cumulative IPC: 1.18757 (Simulation time: 18 hr 18 min 57 sec) 
 Total Blocks : 262144 Invalid Blocks : 0
Heartbeat CPU 6 instructions: 370000000 cycles: 252320678 heartbeat IPC: 1.19184 cumulative IPC: 1.1875 (Simulation time: 18 hr 18 min 59 sec) 
 Total Blocks : 262144 Invalid Blocks : 0
Heartbeat CPU 5 instructions: 370000000 cycles: 252350659 heartbeat IPC: 1.19197 cumulative IPC: 1.18725 (Simulation time: 18 hr 19 min 5 sec) 
 Total Blocks : 262144 Invalid Blocks : 0
Heartbeat CPU 4 instructions: 370000000 cycles: 252450334 heartbeat IPC: 1.18952 cumulative IPC: 1.18642 (Simulation time: 18 hr 19 min 23 sec) 
 Total Blocks : 262144 Invalid Blocks : 0
Heartbeat CPU 1 instructions: 370000000 cycles: 252473998 heartbeat IPC: 1.18984 cumulative IPC: 1.18623 (Simulation time: 18 hr 19 min 27 sec) 
 Total Blocks : 262144 Invalid Blocks : 0
Heartbeat CPU 7 instructions: 380000001 cycles: 260646602 heartbeat IPC: 1.19219 cumulative IPC: 1.18824 (Simulation time: 18 hr 46 min 1 sec) 
 Total Blocks : 262144 Invalid Blocks : 0
Heartbeat CPU 3 instructions: 380000001 cycles: 260690450 heartbeat IPC: 1.1911 cumulative IPC: 1.18789 (Simulation time: 18 hr 46 min 9 sec) 
 Total Blocks : 262144 Invalid Blocks : 0
Heartbeat CPU 2 instructions: 380000001 cycles: 260700984 heartbeat IPC: 1.19017 cumulative IPC: 1.18781 (Simulation time: 18 hr 46 min 10 sec) 
 Total Blocks : 262144 Invalid Blocks : 0
Heartbeat CPU 0 instructions: 380000001 cycles: 260709606 heartbeat IPC: 1.19072 cumulative IPC: 1.18774 (Simulation time: 18 hr 46 min 12 sec) 
 Total Blocks : 262144 Invalid Blocks : 0
Heartbeat CPU 6 instructions: 380000001 cycles: 260711887 heartbeat IPC: 1.19172 cumulative IPC: 1.18774 (Simulation time: 18 hr 46 min 12 sec) 
 Total Blocks : 262144 Invalid Blocks : 0
Heartbeat CPU 5 instructions: 380000001 cycles: 260755532 heartbeat IPC: 1.18979 cumulative IPC: 1.18739 (Simulation time: 18 hr 46 min 22 sec) 
 Total Blocks : 262144 Invalid Blocks : 0
Heartbeat CPU 4 instructions: 380000001 cycles: 260867735 heartbeat IPC: 1.18802 cumulative IPC: 1.18651 (Simulation time: 18 hr 46 min 43 sec) 
 Total Blocks : 262144 Invalid Blocks : 0
Heartbeat CPU 1 instructions: 380000001 cycles: 260869707 heartbeat IPC: 1.19108 cumulative IPC: 1.1865 (Simulation time: 18 hr 46 min 43 sec) 
 Total Blocks : 262144 Invalid Blocks : 0
Heartbeat CPU 7 instructions: 390000003 cycles: 269051747 heartbeat IPC: 1.18975 cumulative IPC: 1.18832 (Simulation time: 19 hr 12 min 51 sec) 
 Total Blocks : 262144 Invalid Blocks : 0
Heartbeat CPU 3 instructions: 390000003 cycles: 269080081 heartbeat IPC: 1.19195 cumulative IPC: 1.1881 (Simulation time: 19 hr 12 min 57 sec) 
 Total Blocks : 262144 Invalid Blocks : 0
Heartbeat CPU 0 instructions: 390000003 cycles: 269103135 heartbeat IPC: 1.19139 cumulative IPC: 1.18794 (Simulation time: 19 hr 13 min 1 sec) 
 Total Blocks : 262144 Invalid Blocks : 0
Heartbeat CPU 2 instructions: 390000003 cycles: 269117047 heartbeat IPC: 1.1882 cumulative IPC: 1.18783 (Simulation time: 19 hr 13 min 4 sec) 
 Total Blocks : 262144 Invalid Blocks : 0
Heartbeat CPU 6 instructions: 390000003 cycles: 269119551 heartbeat IPC: 1.18939 cumulative IPC: 1.18782 (Simulation time: 19 hr 13 min 5 sec) 
 Total Blocks : 262144 Invalid Blocks : 0
Heartbeat CPU 5 instructions: 390000003 cycles: 269144327 heartbeat IPC: 1.19207 cumulative IPC: 1.18763 (Simulation time: 19 hr 13 min 10 sec) 
 Total Blocks : 262144 Invalid Blocks : 0
Heartbeat CPU 4 instructions: 390000003 cycles: 269274488 heartbeat IPC: 1.18952 cumulative IPC: 1.18666 (Simulation time: 19 hr 13 min 36 sec) 
 Total Blocks : 262144 Invalid Blocks : 0
Heartbeat CPU 1 instructions: 390000003 cycles: 269281649 heartbeat IPC: 1.18879 cumulative IPC: 1.18662 (Simulation time: 19 hr 13 min 38 sec) 
 Total Blocks : 262144 Invalid Blocks : 0
Heartbeat CPU 7 instructions: 400000002 cycles: 277447831 heartbeat IPC: 1.19103 cumulative IPC: 1.18845 (Simulation time: 19 hr 39 min 43 sec) 
 Total Blocks : 262144 Invalid Blocks : 0
Finished CPU 7 instructions: 200000003 cycles: 168286332 cumulative IPC: 1.18845 (Simulation time: 19 hr 39 min 44 sec) 
Heartbeat CPU 3 instructions: 400000002 cycles: 277471395 heartbeat IPC: 1.19171 cumulative IPC: 1.18828 (Simulation time: 19 hr 39 min 48 sec) 
 Total Blocks : 262144 Invalid Blocks : 0
Finished CPU 3 instructions: 200000000 cycles: 168310763 cumulative IPC: 1.18828 (Simulation time: 19 hr 39 min 48 sec) 
Heartbeat CPU 0 instructions: 400000002 cycles: 277500710 heartbeat IPC: 1.19082 cumulative IPC: 1.18808 (Simulation time: 19 hr 39 min 53 sec) 
 Total Blocks : 262144 Invalid Blocks : 0
Finished CPU 0 instructions: 200000000 cycles: 168339186 cumulative IPC: 1.18808 (Simulation time: 19 hr 39 min 53 sec) 
Heartbeat CPU 2 instructions: 400000002 cycles: 277510410 heartbeat IPC: 1.19142 cumulative IPC: 1.18801 (Simulation time: 19 hr 39 min 55 sec) 
 Total Blocks : 262144 Invalid Blocks : 0
Finished CPU 2 instructions: 200000000 cycles: 168349089 cumulative IPC: 1.18801 (Simulation time: 19 hr 39 min 55 sec) 
Heartbeat CPU 6 instructions: 400000002 cycles: 277519304 heartbeat IPC: 1.19051 cumulative IPC: 1.18796 (Simulation time: 19 hr 39 min 57 sec) 
 Total Blocks : 262144 Invalid Blocks : 0
Finished CPU 6 instructions: 200000003 cycles: 168355998 cumulative IPC: 1.18796 (Simulation time: 19 hr 39 min 57 sec) 
Heartbeat CPU 5 instructions: 400000002 cycles: 277542696 heartbeat IPC: 1.19071 cumulative IPC: 1.18779 (Simulation time: 19 hr 40 min 1 sec) 
 Total Blocks : 262144 Invalid Blocks : 0
Finished CPU 5 instructions: 200000001 cycles: 168380583 cumulative IPC: 1.18779 (Simulation time: 19 hr 40 min 1 sec) 
Heartbeat CPU 4 instructions: 400000002 cycles: 277675193 heartbeat IPC: 1.19038 cumulative IPC: 1.18685 (Simulation time: 19 hr 40 min 26 sec) 
 Total Blocks : 262144 Invalid Blocks : 0
Finished CPU 4 instructions: 200000001 cycles: 168513761 cumulative IPC: 1.18685 (Simulation time: 19 hr 40 min 26 sec) 
Heartbeat CPU 1 instructions: 400000002 cycles: 277688738 heartbeat IPC: 1.18947 cumulative IPC: 1.18676 (Simulation time: 19 hr 40 min 28 sec) 
 Total Blocks : 262144 Invalid Blocks : 0
Finished CPU 1 instructions: 200000003 cycles: 168525537 cumulative IPC: 1.18676 (Simulation time: 19 hr 40 min 28 sec) 

CPU 0 Branch Prediction Accuracy: 99.9837% MPKI: 0.00109376 Average ROB Occupancy at Mispredict: 348.183

CPU 1 Branch Prediction Accuracy: 99.9836% MPKI: 0.001095 Average ROB Occupancy at Mispredict: 348.183

CPU 2 Branch Prediction Accuracy: 99.9837% MPKI: 0.00109382 Average ROB Occupancy at Mispredict: 348.183

CPU 3 Branch Prediction Accuracy: 99.9837% MPKI: 0.00109357 Average ROB Occupancy at Mispredict: 348.183

CPU 4 Branch Prediction Accuracy: 99.9836% MPKI: 0.00109491 Average ROB Occupancy at Mispredict: 348.196

CPU 5 Branch Prediction Accuracy: 99.9836% MPKI: 0.00109403 Average ROB Occupancy at Mispredict: 348.183

CPU 6 Branch Prediction Accuracy: 99.9837% MPKI: 0.00109388 Average ROB Occupancy at Mispredict: 348.183

CPU 7 Branch Prediction Accuracy: 99.9837% MPKI: 0.00109341 Average ROB Occupancy at Mispredict: 348.183

ChampSim completed all CPUs

Total Simulation Statistics (not including warmup)

CPU 0 cumulative IPC: 1.1881 instructions: 200225601 cycles: 168525537
ITLB TOTAL     ACCESS: 39216903  HIT: 39216903  MISS:     0  HIT %:   100  MISS %:     0  AVERAGE MISS PENALTY: 0
ITLB LOAD      ACCESS: 39216903  HIT: 39216903  MISS:     0  HIT %:   100  MISS %:     0  AVERAGE MISS PENALTY: 0
ITLB RFO       ACCESS:     0  HIT:     0  MISS:     0  HIT %:     0  MISS %:     0  AVERAGE MISS PENALTY: 0
ITLB PREFETCH  ACCESS:     0  HIT:     0  MISS:     0  HIT %:     0  MISS %:     0  AVERAGE MISS PENALTY: 0
ITLB WRITEBACK ACCESS:     0  HIT:     0  MISS:     0  HIT %:     0  MISS %:     0  AVERAGE MISS PENALTY: 0

DTLB TOTAL     ACCESS: 58013804  HIT: 50443648  MISS: 7570156  HIT %: 86.9511  MISS %: 13.0489  AVERAGE MISS PENALTY: 9.78709
DTLB LOAD      ACCESS: 48867271  HIT: 42203163  MISS: 6664108  HIT %: 86.3628  MISS %: 13.6372  AVERAGE MISS PENALTY: 9.62512
DTLB RFO       ACCESS: 9146533  HIT: 8240485  MISS: 906048  HIT %: 90.0941  MISS %: 9.90592  AVERAGE MISS PENALTY: 10.9783
DTLB PREFETCH  ACCESS:     0  HIT:     0  MISS:     0  HIT %:     0  MISS %:     0  AVERAGE MISS PENALTY: 0
DTLB WRITEBACK ACCESS:     0  HIT:     0  MISS:     0  HIT %:     0  MISS %:     0  AVERAGE MISS PENALTY: 0

STLB TOTAL     ACCESS: 7570156  HIT: 7561829  MISS:  8327  HIT %: 99.89  MISS %: 0.109998  AVERAGE MISS PENALTY: 100
STLB LOAD      ACCESS: 6664108  HIT: 6657656  MISS:  6452  HIT %: 99.9032  MISS %: 0.0968172  AVERAGE MISS PENALTY: 100
STLB RFO       ACCESS: 906048  HIT: 904173  MISS:  1875  HIT %: 99.7931  MISS %: 0.206943  AVERAGE MISS PENALTY: 100
STLB PREFETCH  ACCESS:     0  HIT:     0  MISS:     0  HIT %:     0  MISS %:     0  AVERAGE MISS PENALTY: 0
STLB WRITEBACK ACCESS:     0  HIT:     0  MISS:     0  HIT %:     0  MISS %:     0  AVERAGE MISS PENALTY: 0

L1D TOTAL     ACCESS: 113919016  HIT: 90063324  MISS: 23855692  HIT %: 79.0591  MISS %: 20.9409  AVERAGE MISS PENALTY: 1.29455e+06
L1D LOAD      ACCESS: 61559178  HIT: 47774579  MISS: 13784599  HIT %: 77.6076  MISS %: 22.3924  AVERAGE MISS PENALTY: 2.2307e+06
L1D RFO       ACCESS: 15762342  HIT: 14438696  MISS: 1323646  HIT %: 91.6025  MISS %: 8.39752  AVERAGE MISS PENALTY: 100316
L1D PREFETCH  ACCESS: 36597496  HIT: 27850049  MISS: 8747447  HIT %: 76.0982  MISS %: 23.9018  AVERAGE MISS PENALTY: 24.9842
L1D WRITEBACK ACCESS:     0  HIT:     0  MISS:     0  HIT %:     0  MISS %:     0  AVERAGE MISS PENALTY: 0

L1I TOTAL     ACCESS: 44652160  HIT: 38893426  MISS: 5758734  HIT %: 87.1031  MISS %: 12.8969  AVERAGE MISS PENALTY: 11.0788
L1I LOAD      ACCESS: 44652160  HIT: 38893426  MISS: 5758734  HIT %: 87.1031  MISS %: 12.8969  AVERAGE MISS PENALTY: 11.0788
L1I RFO       ACCESS:     0  HIT:     0  MISS:     0  HIT %:     0  MISS %:     0  AVERAGE MISS PENALTY: 0
L1I PREFETCH  ACCESS:     0  HIT:     0  MISS:     0  HIT %:     0  MISS %:     0  AVERAGE MISS PENALTY: 0
L1I WRITEBACK ACCESS:     0  HIT:     0  MISS:     0  HIT %:     0  MISS %:     0  AVERAGE MISS PENALTY: 0

L2C TOTAL     ACCESS: 45715262  HIT: 44705370  MISS: 1009892  HIT %: 97.7909  MISS %: 2.20909  AVERAGE MISS PENALTY: 27062.5
L2C LOAD      ACCESS: 19510164  HIT: 19480379  MISS: 29785  HIT %: 99.8473  MISS %: 0.152664  AVERAGE MISS PENALTY: 910385
L2C RFO       ACCESS: 1320315  HIT: 1202895  MISS: 117420  HIT %: 91.1067  MISS %: 8.89333  AVERAGE MISS PENALTY: 711.911
L2C PREFETCH  ACCESS: 23360937  HIT: 22498657  MISS: 862280  HIT %: 96.3089  MISS %: 3.69112  AVERAGE MISS PENALTY: 151.749
L2C WRITEBACK ACCESS: 1523846  HIT: 1523439  MISS:   407  HIT %: 99.9733  MISS %: 0.0267087  AVERAGE MISS PENALTY: 0


LLC0 TOTAL     ACCESS: 142124  HIT: 67839  MISS: 74285  HIT %: 47.7323  MISS %: 52.2677  AVERAGE MISS PENALTY: 293.875
LLC0 LOAD      ACCESS: 15533  HIT:  7321  MISS:  8212  HIT %: 47.1319  MISS %: 52.8681  AVERAGE MISS PENALTY: 214.523
LLC0 RFO       ACCESS: 14738  HIT:    88  MISS: 14650  HIT %: 0.597096  MISS %: 99.4029  AVERAGE MISS PENALTY: 631.713
LLC0 PREFETCH  ACCESS: 97103  HIT: 47313  MISS: 49790  HIT %: 48.7246  MISS %: 51.2754  AVERAGE MISS PENALTY: 217.197
LLC0 WRITEBACK ACCESS: 14750  HIT: 13117  MISS:  1633  HIT %: 88.9288  MISS %: 11.0712  AVERAGE MISS PENALTY: 0

LLC1 TOTAL     ACCESS: 140683  HIT: 66748  MISS: 73935  HIT %: 47.4457  MISS %: 52.5543  AVERAGE MISS PENALTY: 302.54
LLC1 LOAD      ACCESS:  1687  HIT:   595  MISS:  1092  HIT %: 35.2697  MISS %: 64.7303  AVERAGE MISS PENALTY: 220.77
LLC1 RFO       ACCESS: 14650  HIT:     0  MISS: 14650  HIT %:     0  MISS %:   100  AVERAGE MISS PENALTY: 674.218
LLC1 PREFETCH  ACCESS: 109648  HIT: 53044  MISS: 56604  HIT %: 48.3766  MISS %: 51.6234  AVERAGE MISS PENALTY: 216.414
LLC1 WRITEBACK ACCESS: 14698  HIT: 13109  MISS:  1589  HIT %: 89.189  MISS %: 10.811  AVERAGE MISS PENALTY: 0

LLC2 TOTAL     ACCESS: 140141  HIT: 66276  MISS: 73865  HIT %: 47.2924  MISS %: 52.7076  AVERAGE MISS PENALTY: 306.904
LLC2 LOAD      ACCESS:  1868  HIT:   854  MISS:  1014  HIT %: 45.7173  MISS %: 54.2827  AVERAGE MISS PENALTY: 242.362
LLC2 RFO       ACCESS: 14657  HIT:     7  MISS: 14650  HIT %: 0.0477588  MISS %: 99.9522  AVERAGE MISS PENALTY: 675.773
LLC2 PREFETCH  ACCESS: 108967  HIT: 52326  MISS: 56641  HIT %: 48.02  MISS %: 51.98  AVERAGE MISS PENALTY: 221.106
LLC2 WRITEBACK ACCESS: 14649  HIT: 13089  MISS:  1560  HIT %: 89.3508  MISS %: 10.6492  AVERAGE MISS PENALTY: 0

LLC3 TOTAL     ACCESS: 138709  HIT: 64819  MISS: 73890  HIT %: 46.7302  MISS %: 53.2698  AVERAGE MISS PENALTY: 306.115
LLC3 LOAD      ACCESS:  1755  HIT:   671  MISS:  1084  HIT %: 38.2336  MISS %: 61.7664  AVERAGE MISS PENALTY: 247.063
LLC3 RFO       ACCESS: 14650  HIT:     0  MISS: 14650  HIT %:     0  MISS %:   100  AVERAGE MISS PENALTY: 673.925
LLC3 PREFETCH  ACCESS: 107671  HIT: 51101  MISS: 56570  HIT %: 47.4603  MISS %: 52.5397  AVERAGE MISS PENALTY: 220.576
LLC3 WRITEBACK ACCESS: 14633  HIT: 13047  MISS:  1586  HIT %: 89.1615  MISS %: 10.8385  AVERAGE MISS PENALTY: 0

LLC4 TOTAL     ACCESS: 140253  HIT: 66264  MISS: 73989  HIT %: 47.246  MISS %: 52.754  AVERAGE MISS PENALTY: 302.609
LLC4 LOAD      ACCESS:  1832  HIT:   731  MISS:  1101  HIT %: 39.9017  MISS %: 60.0983  AVERAGE MISS PENALTY: 235.103
LLC4 RFO       ACCESS: 14651  HIT:     1  MISS: 14650  HIT %: 0.00682547  MISS %: 99.9932  AVERAGE MISS PENALTY: 679.368
LLC4 PREFETCH  ACCESS: 109090  HIT: 52428  MISS: 56662  HIT %: 48.0594  MISS %: 51.9406  AVERAGE MISS PENALTY: 214.926
LLC4 WRITEBACK ACCESS: 14680  HIT: 13104  MISS:  1576  HIT %: 89.2643  MISS %: 10.7357  AVERAGE MISS PENALTY: 0

LLC5 TOTAL     ACCESS: 141769  HIT: 67827  MISS: 73942  HIT %: 47.8433  MISS %: 52.1567  AVERAGE MISS PENALTY: 302.57
LLC5 LOAD      ACCESS:  2832  HIT:  1748  MISS:  1084  HIT %: 61.7232  MISS %: 38.2768  AVERAGE MISS PENALTY: 226.972
LLC5 RFO       ACCESS: 14664  HIT:    14  MISS: 14650  HIT %: 0.0954719  MISS %: 99.9045  AVERAGE MISS PENALTY: 677.895
LLC5 PREFETCH  ACCESS: 109500  HIT: 52908  MISS: 56592  HIT %: 48.3178  MISS %: 51.6822  AVERAGE MISS PENALTY: 215.497
LLC5 WRITEBACK ACCESS: 14773  HIT: 13157  MISS:  1616  HIT %: 89.0611  MISS %: 10.9389  AVERAGE MISS PENALTY: 0

LLC6 TOTAL     ACCESS: 140755  HIT: 66868  MISS: 73887  HIT %: 47.5067  MISS %: 52.4933  AVERAGE MISS PENALTY: 309.717
LLC6 LOAD      ACCESS:  2131  HIT:   988  MISS:  1143  HIT %: 46.3632  MISS %: 53.6368  AVERAGE MISS PENALTY: 254.548
LLC6 RFO       ACCESS: 14673  HIT:    23  MISS: 14650  HIT %: 0.15675  MISS %: 99.8432  AVERAGE MISS PENALTY: 682.813
LLC6 PREFETCH  ACCESS: 109124  HIT: 52565  MISS: 56559  HIT %: 48.17  MISS %: 51.83  AVERAGE MISS PENALTY: 222.598
LLC6 WRITEBACK ACCESS: 14827  HIT: 13292  MISS:  1535  HIT %: 89.6473  MISS %: 10.3527  AVERAGE MISS PENALTY: 0

LLC7 TOTAL     ACCESS: 142767  HIT: 68824  MISS: 73943  HIT %: 48.2072  MISS %: 51.7928  AVERAGE MISS PENALTY: 311.006
LLC7 LOAD      ACCESS:  2131  HIT:  1128  MISS:  1003  HIT %: 52.9329  MISS %: 47.0671  AVERAGE MISS PENALTY: 242.98
LLC7 RFO       ACCESS: 14721  HIT:    71  MISS: 14650  HIT %: 0.482304  MISS %: 99.5177  AVERAGE MISS PENALTY: 693.41
LLC7 PREFETCH  ACCESS: 111193  HIT: 54460  MISS: 56733  HIT %: 48.9779  MISS %: 51.0221  AVERAGE MISS PENALTY: 221.997
LLC7 WRITEBACK ACCESS: 14722  HIT: 13165  MISS:  1557  HIT %: 89.424  MISS %: 10.576  AVERAGE MISS PENALTY: 0

Total Rob stall cycles : 	126693496
Total Load Rob Stall cycles : 	38817907
Average Rob Stall cycles : 	 5
Average Load Rob Stall cycles : 	 12

CPU 1 cumulative IPC: 1.18676 instructions: 200000003 cycles: 168525537
ITLB TOTAL     ACCESS: 39172736  HIT: 39172736  MISS:     0  HIT %:   100  MISS %:     0  AVERAGE MISS PENALTY: 0
ITLB LOAD      ACCESS: 39172736  HIT: 39172736  MISS:     0  HIT %:   100  MISS %:     0  AVERAGE MISS PENALTY: 0
ITLB RFO       ACCESS:     0  HIT:     0  MISS:     0  HIT %:     0  MISS %:     0  AVERAGE MISS PENALTY: 0
ITLB PREFETCH  ACCESS:     0  HIT:     0  MISS:     0  HIT %:     0  MISS %:     0  AVERAGE MISS PENALTY: 0
ITLB WRITEBACK ACCESS:     0  HIT:     0  MISS:     0  HIT %:     0  MISS %:     0  AVERAGE MISS PENALTY: 0

DTLB TOTAL     ACCESS: 57949698  HIT: 50388221  MISS: 7561477  HIT %: 86.9517  MISS %: 13.0483  AVERAGE MISS PENALTY: 9.78768
DTLB LOAD      ACCESS: 48813583  HIT: 42157130  MISS: 6656453  HIT %: 86.3635  MISS %: 13.6365  AVERAGE MISS PENALTY: 9.62637
DTLB RFO       ACCESS: 9136115  HIT: 8231091  MISS: 905024  HIT %: 90.094  MISS %: 9.906  AVERAGE MISS PENALTY: 10.9741
DTLB PREFETCH  ACCESS:     0  HIT:     0  MISS:     0  HIT %:     0  MISS %:     0  AVERAGE MISS PENALTY: 0
DTLB WRITEBACK ACCESS:     0  HIT:     0  MISS:     0  HIT %:     0  MISS %:     0  AVERAGE MISS PENALTY: 0

STLB TOTAL     ACCESS: 7561477  HIT: 7553154  MISS:  8323  HIT %: 99.8899  MISS %: 0.110071  AVERAGE MISS PENALTY: 100
STLB LOAD      ACCESS: 6656453  HIT: 6650005  MISS:  6448  HIT %: 99.9031  MISS %: 0.0968684  AVERAGE MISS PENALTY: 100
STLB RFO       ACCESS: 905024  HIT: 903149  MISS:  1875  HIT %: 99.7928  MISS %: 0.207177  AVERAGE MISS PENALTY: 100
STLB PREFETCH  ACCESS:     0  HIT:     0  MISS:     0  HIT %:     0  MISS %:     0  AVERAGE MISS PENALTY: 0
STLB WRITEBACK ACCESS:     0  HIT:     0  MISS:     0  HIT %:     0  MISS %:     0  AVERAGE MISS PENALTY: 0

L1D TOTAL     ACCESS: 113786074  HIT: 89936311  MISS: 23849763  HIT %: 79.0398  MISS %: 20.9602  AVERAGE MISS PENALTY: 1.31546e+06
L1D LOAD      ACCESS: 61489824  HIT: 47716284  MISS: 13773540  HIT %: 77.6003  MISS %: 22.3997  AVERAGE MISS PENALTY: 2.26833e+06
L1D RFO       ACCESS: 15744625  HIT: 14422228  MISS: 1322397  HIT %: 91.601  MISS %: 8.39904  AVERAGE MISS PENALTY: 98464.3
L1D PREFETCH  ACCESS: 36551625  HIT: 27797799  MISS: 8753826  HIT %: 76.0508  MISS %: 23.9492  AVERAGE MISS PENALTY: 24.9463
L1D WRITEBACK ACCESS:     0  HIT:     0  MISS:     0  HIT %:     0  MISS %:     0  AVERAGE MISS PENALTY: 0

L1I TOTAL     ACCESS: 44603051  HIT: 38850761  MISS: 5752290  HIT %: 87.1034  MISS %: 12.8966  AVERAGE MISS PENALTY: 11.0785
L1I LOAD      ACCESS: 44603051  HIT: 38850761  MISS: 5752290  HIT %: 87.1034  MISS %: 12.8966  AVERAGE MISS PENALTY: 11.0785
L1I RFO       ACCESS:     0  HIT:     0  MISS:     0  HIT %:     0  MISS %:     0  AVERAGE MISS PENALTY: 0
L1I PREFETCH  ACCESS:     0  HIT:     0  MISS:     0  HIT %:     0  MISS %:     0  AVERAGE MISS PENALTY: 0
L1I WRITEBACK ACCESS:     0  HIT:     0  MISS:     0  HIT %:     0  MISS %:     0  AVERAGE MISS PENALTY: 0

L2C TOTAL     ACCESS: 45698989  HIT: 44622890  MISS: 1076099  HIT %: 97.6452  MISS %: 2.35475  AVERAGE MISS PENALTY: 22504.9
L2C LOAD      ACCESS: 19492515  HIT: 19462454  MISS: 30061  HIT %: 99.8458  MISS %: 0.154218  AVERAGE MISS PENALTY: 798484
L2C RFO       ACCESS: 1319189  HIT: 1202005  MISS: 117184  HIT %: 91.117  MISS %: 8.88303  AVERAGE MISS PENALTY: 708.945
L2C PREFETCH  ACCESS: 23364638  HIT: 22436150  MISS: 928488  HIT %: 96.0261  MISS %: 3.9739  AVERAGE MISS PENALTY: 141.262
L2C WRITEBACK ACCESS: 1522647  HIT: 1522281  MISS:   366  HIT %: 99.976  MISS %: 0.0240371  AVERAGE MISS PENALTY: 0


LLC0 TOTAL     ACCESS: 150213  HIT: 76156  MISS: 74057  HIT %: 50.6987  MISS %: 49.3013  AVERAGE MISS PENALTY: 290.798
LLC0 LOAD      ACCESS: 16779  HIT:  8602  MISS:  8177  HIT %: 51.2665  MISS %: 48.7335  AVERAGE MISS PENALTY: 214.78
LLC0 RFO       ACCESS: 14668  HIT:    18  MISS: 14650  HIT %: 0.122716  MISS %: 99.8773  AVERAGE MISS PENALTY: 636.242
LLC0 PREFETCH  ACCESS: 104139  HIT: 54643  MISS: 49496  HIT %: 52.4712  MISS %: 47.5288  AVERAGE MISS PENALTY: 211.298
LLC0 WRITEBACK ACCESS: 14627  HIT: 12893  MISS:  1734  HIT %: 88.1452  MISS %: 11.8548  AVERAGE MISS PENALTY: 0

LLC1 TOTAL     ACCESS: 150004  HIT: 75792  MISS: 74212  HIT %: 50.5267  MISS %: 49.4733  AVERAGE MISS PENALTY: 301.733
LLC1 LOAD      ACCESS:  2395  HIT:  1272  MISS:  1123  HIT %: 53.1106  MISS %: 46.8894  AVERAGE MISS PENALTY: 248.335
LLC1 RFO       ACCESS: 14669  HIT:    19  MISS: 14650  HIT %: 0.129525  MISS %: 99.8705  AVERAGE MISS PENALTY: 684.586
LLC1 PREFETCH  ACCESS: 118261  HIT: 61545  MISS: 56716  HIT %: 52.0417  MISS %: 47.9583  AVERAGE MISS PENALTY: 213.064
LLC1 WRITEBACK ACCESS: 14679  HIT: 12956  MISS:  1723  HIT %: 88.2621  MISS %: 11.7379  AVERAGE MISS PENALTY: 0

LLC2 TOTAL     ACCESS: 148836  HIT: 74682  MISS: 74154  HIT %: 50.1774  MISS %: 49.8226  AVERAGE MISS PENALTY: 298.09
LLC2 LOAD      ACCESS:  2260  HIT:  1198  MISS:  1062  HIT %: 53.0088  MISS %: 46.9912  AVERAGE MISS PENALTY: 273.506
LLC2 RFO       ACCESS: 14657  HIT:    32  MISS: 14625  HIT %: 0.218326  MISS %: 99.7817  AVERAGE MISS PENALTY: 664.951
LLC2 PREFETCH  ACCESS: 117284  HIT: 60538  MISS: 56746  HIT %: 51.6166  MISS %: 48.3834  AVERAGE MISS PENALTY: 213.04
LLC2 WRITEBACK ACCESS: 14635  HIT: 12914  MISS:  1721  HIT %: 88.2405  MISS %: 11.7595  AVERAGE MISS PENALTY: 0

LLC3 TOTAL     ACCESS: 147633  HIT: 73483  MISS: 74150  HIT %: 49.7741  MISS %: 50.2259  AVERAGE MISS PENALTY: 299.563
LLC3 LOAD      ACCESS:  1805  HIT:   722  MISS:  1083  HIT %:    40  MISS %:    60  AVERAGE MISS PENALTY: 270.164
LLC3 RFO       ACCESS: 14626  HIT:     1  MISS: 14625  HIT %: 0.00683714  MISS %: 99.9932  AVERAGE MISS PENALTY: 666.531
LLC3 PREFETCH  ACCESS: 116613  HIT: 59839  MISS: 56774  HIT %: 51.3142  MISS %: 48.6858  AVERAGE MISS PENALTY: 214.394
LLC3 WRITEBACK ACCESS: 14589  HIT: 12921  MISS:  1668  HIT %: 88.5667  MISS %: 11.4333  AVERAGE MISS PENALTY: 0

[...]
 TIMELY PREFETCHES:       1888 LATE PREFETCHES: 0 DROPPED PREFETCHES: 0
LLC1 AVERAGE MISS LATENCY: 307.548 cycles
LLC2 TOTAL     ACCESS: 137447  HIT: 64036  MISS: 73411  HIT %: 46.5896  MISS %: 53.4104  AVERAGE MISS PENALTY: 309.118
LLC2 LOAD      ACCESS:  2125  HIT:  1078  MISS:  1047  HIT %: 50.7294  MISS %: 49.2706  AVERAGE MISS PENALTY: 253.732
LLC2 RFO       ACCESS: 14638  HIT:    13  MISS: 14625  HIT %: 0.0888099  MISS %: 99.9112  AVERAGE MISS PENALTY: 681.35
LLC2 PREFETCH  ACCESS: 106041  HIT: 49757  MISS: 56284  HIT %: 46.9224  MISS %: 53.0776  AVERAGE MISS PENALTY: 221.417
LLC2 WRITEBACK ACCESS: 14643  HIT: 13188  MISS:  1455  HIT %: 90.0635  MISS %: 9.93649  AVERAGE MISS PENALTY: 0
LLC2 PREFETCH  REQUESTED:     0  ISSUED:     0  USEFUL:  1565  USELESS: 451692
 USEFUL LOAD PREFETCHES:       1565 PREFETCH ISSUED TO LOWER LEVEL:     533419  ACCURACY: 0.29339
 TIMELY PREFETCHES:       1565 LATE PREFETCHES: 0 DROPPED PREFETCHES: 0
LLC2 AVERAGE MISS LATENCY: 309.118 cycles
LLC3 TOTAL     ACCESS: 136095  HIT: 62875  MISS: 73220  HIT %: 46.1993  MISS %: 53.8007  AVERAGE MISS PENALTY: 308.84
LLC3 LOAD      ACCESS:  1997  HIT:   940  MISS:  1057  HIT %: 47.0706  MISS %: 52.9294  AVERAGE MISS PENALTY: 267.381
LLC3 RFO       ACCESS: 14633  HIT:     8  MISS: 14625  HIT %: 0.0546709  MISS %: 99.9453  AVERAGE MISS PENALTY: 680.309
LLC3 PREFETCH  ACCESS: 104848  HIT: 48837  MISS: 56011  HIT %: 46.5789  MISS %: 53.4211  AVERAGE MISS PENALTY: 221.048
LLC3 WRITEBACK ACCESS: 14617  HIT: 13090  MISS:  1527  HIT %: 89.5533  MISS %: 10.4467  AVERAGE MISS PENALTY: 0
LLC3 PREFETCH  REQUESTED:     0  ISSUED:     0  USEFUL:  1445  USELESS: 450776
 USEFUL LOAD PREFETCHES:       1445 PREFETCH ISSUED TO LOWER LEVEL:     535428  ACCURACY: 0.269878
 TIMELY PREFETCHES:       1445 LATE PREFETCHES: 0 DROPPED PREFETCHES: 0
LLC3 AVERAGE MISS LATENCY: 308.84 cycles
LLC4 TOTAL     ACCESS: 137377  HIT: 63858  MISS: 73519  HIT %: 46.4838  MISS %: 53.5162  AVERAGE MISS PENALTY: 306.83
LLC4 LOAD      ACCESS:  2079  HIT:   974  MISS:  1105  HIT %: 46.8494  MISS %: 53.1506  AVERAGE MISS PENALTY: 226.111
LLC4 RFO       ACCESS: 14626  HIT:     1  MISS: 14625  HIT %: 0.00683714  MISS %: 99.9932  AVERAGE MISS PENALTY: 688.742
LLC4 PREFETCH  ACCESS: 106044  HIT: 49799  MISS: 56245  HIT %: 46.9607  MISS %: 53.0393  AVERAGE MISS PENALTY: 217.533
LLC4 WRITEBACK ACCESS: 14628  HIT: 13084  MISS:  1544  HIT %: 89.4449  MISS %: 10.5551  AVERAGE MISS PENALTY: 0
LLC4 PREFETCH  REQUESTED:     0  ISSUED:     0  USEFUL:  1388  USELESS: 451702
 USEFUL LOAD PREFETCHES:       1388 PREFETCH ISSUED TO LOWER LEVEL:     553012  ACCURACY: 0.250989
 TIMELY PREFETCHES:       1388 LATE PREFETCHES: 0 DROPPED PREFETCHES: 0
LLC4 AVERAGE MISS LATENCY: 306.83 cycles
LLC5 TOTAL     ACCESS: 136887  HIT: 63342  MISS: 73545  HIT %: 46.2732  MISS %: 53.7268  AVERAGE MISS PENALTY: 306.948
LLC5 LOAD      ACCESS:  1997  HIT:   950  MISS:  1047  HIT %: 47.5714  MISS %: 52.4286  AVERAGE MISS PENALTY: 221.181
LLC5 RFO       ACCESS: 14626  HIT:     1  MISS: 14625  HIT %: 0.00683714  MISS %: 99.9932  AVERAGE MISS PENALTY: 684.519
LLC5 PREFETCH  ACCESS: 105569  HIT: 49240  MISS: 56329  HIT %: 46.6425  MISS %: 53.3575  AVERAGE MISS PENALTY: 218.925
LLC5 WRITEBACK ACCESS: 14695  HIT: 13151  MISS:  1544  HIT %: 89.493  MISS %: 10.507  AVERAGE MISS PENALTY: 0
LLC5 PREFETCH  REQUESTED:     0  ISSUED:     0  USEFUL:  1706  USELESS: 451828
 USEFUL LOAD PREFETCHES:       1706 PREFETCH ISSUED TO LOWER LEVEL:     570951  ACCURACY: 0.2988
 TIMELY PREFETCHES:       1706 LATE PREFETCHES: 0 DROPPED PREFETCHES: 0
LLC5 AVERAGE MISS LATENCY: 306.948 cycles
LLC6 TOTAL     ACCESS: 137405  HIT: 63963  MISS: 73442  HIT %: 46.5507  MISS %: 53.4493  AVERAGE MISS PENALTY: 308.018
LLC6 LOAD      ACCESS:  2161  HIT:  1039  MISS:  1122  HIT %: 48.0796  MISS %: 51.9204  AVERAGE MISS PENALTY: 245.878
LLC6 RFO       ACCESS: 14633  HIT:     8  MISS: 14625  HIT %: 0.0546709  MISS %: 99.9453  AVERAGE MISS PENALTY: 680.568
LLC6 PREFETCH  ACCESS: 105971  HIT: 49777  MISS: 56194  HIT %: 46.9723  MISS %: 53.0277  AVERAGE MISS PENALTY: 220.527
LLC6 WRITEBACK ACCESS: 14640  HIT: 13139  MISS:  1501  HIT %: 89.7473  MISS %: 10.2527  AVERAGE MISS PENALTY: 0
LLC6 PREFETCH  REQUESTED:     0  ISSUED:     0  USEFUL:  1663  USELESS: 451122
 USEFUL LOAD PREFETCHES:       1663 PREFETCH ISSUED TO LOWER LEVEL:     666877  ACCURACY: 0.249371
 TIMELY PREFETCHES:       1663 LATE PREFETCHES: 0 DROPPED PREFETCHES: 0
LLC6 AVERAGE MISS LATENCY: 308.018 cycles
LLC7 TOTAL     ACCESS: 139593  HIT: 65911  MISS: 73682  HIT %: 47.2166  MISS %: 52.7834  AVERAGE MISS PENALTY: 310.516
LLC7 LOAD      ACCESS:  2230  HIT:  1271  MISS:   959  HIT %: 56.9955  MISS %: 43.0045  AVERAGE MISS PENALTY: 241.878
LLC7 RFO       ACCESS: 14696  HIT:    46  MISS: 14650  HIT %: 0.31301  MISS %: 99.687  AVERAGE MISS PENALTY: 687.091
LLC7 PREFETCH  ACCESS: 108000  HIT: 51441  MISS: 56559  HIT %: 47.6306  MISS %: 52.3694  AVERAGE MISS PENALTY: 222.451
LLC7 WRITEBACK ACCESS: 14667  HIT: 13153  MISS:  1514  HIT %: 89.6775  MISS %: 10.3225  AVERAGE MISS PENALTY: 0
LLC7 PREFETCH  REQUESTED:     0  ISSUED:     0  USEFUL:  2524  USELESS: 452492
 USEFUL LOAD PREFETCHES:       2524 PREFETCH ISSUED TO LOWER LEVEL:     659560  ACCURACY: 0.382679
 TIMELY PREFETCHES:       2524 LATE PREFETCHES: 0 DROPPED PREFETCHES: 0
LLC7 AVERAGE MISS LATENCY: 310.516 cycles
ROI Average ROB Stall Cycles:	5.76423
ROI Total ROB Stalls Cycles:	126569939
ROI TOTAL ROB counter      :	21957820
ROI Average Load ROB Stall Cycles:	12.4603
ROI Total Load ROB Stalls Cycle  :	38803616
ROI Total Load ROB stalls Counter:	3114171
Major fault: 0 Minor fault: 11250

CPU 7 cumulative IPC: 1.18845 instructions: 200000003 cycles: 168286332
ITLB TOTAL     ACCESS: 39173368  HIT: 39173368  MISS:     0  HIT %:   100  MISS %:     0  AVERAGE MISS PENALTY: 0
ITLB LOAD      ACCESS: 39173368  HIT: 39173368  MISS:     0  HIT %:   100  MISS %:     0  AVERAGE MISS PENALTY: 0
ITLB RFO       ACCESS:     0  HIT:     0  MISS:     0  HIT %:     0  MISS %:     0  AVERAGE MISS PENALTY: 0
ITLB PREFETCH  ACCESS:     0  HIT:     0  MISS:     0  HIT %:     0  MISS %:     0  AVERAGE MISS PENALTY: 0
ITLB WRITEBACK ACCESS:     0  HIT:     0  MISS:     0  HIT %:     0  MISS %:     0  AVERAGE MISS PENALTY: 0
ITLB PREFETCH  REQUESTED:     0  ISSUED:     0  USEFUL:     0  USELESS:     0
 USEFUL LOAD PREFETCHES:          0 PREFETCH ISSUED TO LOWER LEVEL:          0  ACCURACY: -nan
 TIMELY PREFETCHES:          0 LATE PREFETCHES: 0 DROPPED PREFETCHES: 0
ITLB AVERAGE MISS LATENCY: -nan cycles
DTLB TOTAL     ACCESS: 57949901  HIT: 50388299  MISS: 7561602  HIT %: 86.9515  MISS %: 13.0485  AVERAGE MISS PENALTY: 9.7892
DTLB LOAD      ACCESS: 48813817  HIT: 42157228  MISS: 6656589  HIT %: 86.3633  MISS %: 13.6367  AVERAGE MISS PENALTY: 9.62613
DTLB RFO       ACCESS: 9136084  HIT: 8231071  MISS: 905013  HIT %: 90.0941  MISS %: 9.90592  AVERAGE MISS PENALTY: 10.9886
DTLB PREFETCH  ACCESS:     0  HIT:     0  MISS:     0  HIT %:     0  MISS %:     0  AVERAGE MISS PENALTY: 0
DTLB WRITEBACK ACCESS:     0  HIT:     0  MISS:     0  HIT %:     0  MISS %:     0  AVERAGE MISS PENALTY: 0
DTLB PREFETCH  REQUESTED:     0  ISSUED:     0  USEFUL:     0  USELESS:     0
 USEFUL LOAD PREFETCHES:          0 PREFETCH ISSUED TO LOWER LEVEL:          0  ACCURACY: -nan
 TIMELY PREFETCHES:          0 LATE PREFETCHES: 0 DROPPED PREFETCHES: 0
DTLB AVERAGE MISS LATENCY: 9.7892 cycles
STLB TOTAL     ACCESS: 7561603  HIT: 7553280  MISS:  8323  HIT %: 99.8899  MISS %: 0.110069  AVERAGE MISS PENALTY: 100
STLB LOAD      ACCESS: 6656590  HIT: 6650142  MISS:  6448  HIT %: 99.9031  MISS %: 0.0968664  AVERAGE MISS PENALTY: 100
STLB RFO       ACCESS: 905013  HIT: 903138  MISS:  1875  HIT %: 99.7928  MISS %: 0.207179  AVERAGE MISS PENALTY: 100
STLB PREFETCH  ACCESS:     0  HIT:     0  MISS:     0  HIT %:     0  MISS %:     0  AVERAGE MISS PENALTY: 0
STLB WRITEBACK ACCESS:     0  HIT:     0  MISS:     0  HIT %:     0  MISS %:     0  AVERAGE MISS PENALTY: 0
STLB PREFETCH  REQUESTED:     0  ISSUED:     0  USEFUL:     0  USELESS:     0
 USEFUL LOAD PREFETCHES:          0 PREFETCH ISSUED TO LOWER LEVEL:          0  ACCURACY: -nan
 TIMELY PREFETCHES:          0 LATE PREFETCHES: 0 DROPPED PREFETCHES: 0
STLB AVERAGE MISS LATENCY: 100 cycles
L1D TOTAL     ACCESS: 113778945  HIT: 89948121  MISS: 23830824  HIT %: 79.0552  MISS %: 20.9448  AVERAGE MISS PENALTY: 1.31518e+06
L1D LOAD      ACCESS: 61489501  HIT: 47716078  MISS: 13773423  HIT %: 77.6004  MISS %: 22.3996  AVERAGE MISS PENALTY: 2.26605e+06
L1D RFO       ACCESS: 15744477  HIT: 14422226  MISS: 1322251  HIT %: 91.6018  MISS %: 8.39819  AVERAGE MISS PENALTY: 98575.2
L1D PREFETCH  ACCESS: 36544967  HIT: 27809817  MISS: 8735150  HIT %: 76.0975  MISS %: 23.9025  AVERAGE MISS PENALTY: 25.0084
L1D WRITEBACK ACCESS:     0  HIT:     0  MISS:     0  HIT %:     0  MISS %:     0  AVERAGE MISS PENALTY: 0
L1D PREFETCH  REQUESTED: 42062780  ISSUED: 38209467  USEFUL: 556797  USELESS: 8178319
 USEFUL LOAD PREFETCHES:     556797 PREFETCH ISSUED TO LOWER LEVEL:   21485162  ACCURACY: 2.59154
 TIMELY PREFETCHES:     556797 LATE PREFETCHES: 548837 DROPPED PREFETCHES: 3853313
L1D AVERAGE MISS LATENCY: 5487.8 cycles
L1I TOTAL     ACCESS: 44601856  HIT: 38849637  MISS: 5752219  HIT %: 87.1032  MISS %: 12.8968  AVERAGE MISS PENALTY: 11.0901
L1I LOAD      ACCESS: 44601856  HIT: 38849637  MISS: 5752219  HIT %: 87.1032  MISS %: 12.8968  AVERAGE MISS PENALTY: 11.0901
L1I RFO       ACCESS:     0  HIT:     0  MISS:     0  HIT %:     0  MISS %:     0  AVERAGE MISS PENALTY: 0
L1I PREFETCH  ACCESS:     0  HIT:     0  MISS:     0  HIT %:     0  MISS %:     0  AVERAGE MISS PENALTY: 0
L1I WRITEBACK ACCESS:     0  HIT:     0  MISS:     0  HIT %:     0  MISS %:     0  AVERAGE MISS PENALTY: 0
L1I PREFETCH  REQUESTED:     0  ISSUED:     0  USEFUL:     0  USELESS:     0
 USEFUL LOAD PREFETCHES:          0 PREFETCH ISSUED TO LOWER LEVEL:          0  ACCURACY: -nan
 TIMELY PREFETCHES:          0 LATE PREFETCHES: 0 DROPPED PREFETCHES: 0
L1I AVERAGE MISS LATENCY: 11.0901 cycles
L2C TOTAL     ACCESS: 45728749  HIT: 44716926  MISS: 1011823  HIT %: 97.7873  MISS %: 2.21266  AVERAGE MISS PENALTY: 59907.4
L2C LOAD      ACCESS: 19492317  HIT: 19460728  MISS: 31589  HIT %: 99.8379  MISS %: 0.162059  AVERAGE MISS PENALTY: 1.91212e+06
L2C RFO       ACCESS: 1318992  HIT: 1201743  MISS: 117249  HIT %: 91.1107  MISS %: 8.88929  AVERAGE MISS PENALTY: 712.571
L2C PREFETCH  ACCESS: 23395173  HIT: 22532385  MISS: 862788  HIT %: 96.3121  MISS %: 3.68789  AVERAGE MISS PENALTY: 150.883
L2C WRITEBACK ACCESS: 1522267  HIT: 1522070  MISS:   197  HIT %: 99.9871  MISS %: 0.0129412  AVERAGE MISS PENALTY: 0
L2C PREFETCH  REQUESTED: 19294716  ISSUED: 18203110  USEFUL: 851024  USELESS: 12193
 USEFUL LOAD PREFETCHES:     851024 PREFETCH ISSUED TO LOWER LEVEL:     877355  ACCURACY: 96.9988
 TIMELY PREFETCHES:     851024 LATE PREFETCHES: 1523 DROPPED PREFETCHES: 1091606
L2C AVERAGE MISS LATENCY: 215.775 cycles
LLC0 TOTAL     ACCESS: 142719  HIT: 68840  MISS: 73879  HIT %: 48.2346  MISS %: 51.7654  AVERAGE MISS PENALTY: 287.872
LLC0 LOAD      ACCESS: 15788  HIT:  7627  MISS:  8161  HIT %: 48.3088  MISS %: 51.6912  AVERAGE MISS PENALTY: 201.175
LLC0 RFO       ACCESS: 14686  HIT:    36  MISS: 14650  HIT %: 0.245131  MISS %: 99.7549  AVERAGE MISS PENALTY: 623.311
LLC0 PREFETCH  ACCESS: 97549  HIT: 48087  MISS: 49462  HIT %: 49.2952  MISS %: 50.7048  AVERAGE MISS PENALTY: 212.171
LLC0 WRITEBACK ACCESS: 14696  HIT: 13090  MISS:  1606  HIT %: 89.0719  MISS %: 10.9281  AVERAGE MISS PENALTY: 0
LLC0 PREFETCH  REQUESTED:     0  ISSUED:     0  USEFUL:  1878  USELESS: 395532
 USEFUL LOAD PREFETCHES:       1878 PREFETCH ISSUED TO LOWER LEVEL:     451579  ACCURACY: 0.415874
 TIMELY PREFETCHES:       1878 LATE PREFETCHES: 0 DROPPED PREFETCHES: 0
LLC0 AVERAGE MISS LATENCY: 287.872 cycles
Deadblocks : 62364 Deadblock percentage : 764.171

LLC1 TOTAL     ACCESS: 141243  HIT: 67292  MISS: 73951  HIT %: 47.6427  MISS %: 52.3573  AVERAGE MISS PENALTY: 297.152
LLC1 LOAD      ACCESS:  2018  HIT:   932  MISS:  1086  HIT %: 46.1843  MISS %: 53.8157  AVERAGE MISS PENALTY: 214.677
LLC1 RFO       ACCESS: 14673  HIT:    23  MISS: 14650  HIT %: 0.15675  MISS %: 99.8432  AVERAGE MISS PENALTY: 668.629
LLC1 PREFETCH  ACCESS: 109877  HIT: 53307  MISS: 56570  HIT %: 48.5152  MISS %: 51.4848  AVERAGE MISS PENALTY: 211.174
LLC1 WRITEBACK ACCESS: 14675  HIT: 13030  MISS:  1645  HIT %: 88.7905  MISS %: 11.2095  AVERAGE MISS PENALTY: 0
LLC1 PREFETCH  REQUESTED:     0  ISSUED:     0  USEFUL:  1888  USELESS: 451611
 USEFUL LOAD PREFETCHES:       1888 PREFETCH ISSUED TO LOWER LEVEL:     520403  ACCURACY: 0.362796
 TIMELY PREFETCHES:       1888 LATE PREFETCHES: 0 DROPPED PREFETCHES: 0
LLC1 AVERAGE MISS LATENCY: 297.152 cycles
LLC2 TOTAL     ACCESS: 140325  HIT: 66529  MISS: 73796  HIT %: 47.4107  MISS %: 52.5893  AVERAGE MISS PENALTY: 310.396
LLC2 LOAD      ACCESS:  1851  HIT:   804  MISS:  1047  HIT %: 43.436  MISS %: 56.564  AVERAGE MISS PENALTY: 243.485
LLC2 RFO       ACCESS: 14627  HIT:     2  MISS: 14625  HIT %: 0.0136733  MISS %: 99.9863  AVERAGE MISS PENALTY: 685.089
LLC2 PREFETCH  ACCESS: 109188  HIT: 52680  MISS: 56508  HIT %: 48.2471  MISS %: 51.7529  AVERAGE MISS PENALTY: 223.537
LLC2 WRITEBACK ACCESS: 14659  HIT: 13043  MISS:  1616  HIT %: 88.9761  MISS %: 11.0239  AVERAGE MISS PENALTY: 0
LLC2 PREFETCH  REQUESTED:     0  ISSUED:     0  USEFUL:  1565  USELESS: 451692
 USEFUL LOAD PREFETCHES:       1565 PREFETCH ISSUED TO LOWER LEVEL:     533419  ACCURACY: 0.29339
 TIMELY PREFETCHES:       1565 LATE PREFETCHES: 0 DROPPED PREFETCHES: 0
LLC2 AVERAGE MISS LATENCY: 310.396 cycles
LLC3 TOTAL     ACCESS: 138590  HIT: 64897  MISS: 73693  HIT %: 46.8266  MISS %: 53.1734  AVERAGE MISS PENALTY: 310.509
LLC3 LOAD      ACCESS:  1799  HIT:   705  MISS:  1094  HIT %: 39.1884  MISS %: 60.8116  AVERAGE MISS PENALTY: 214.61
LLC3 RFO       ACCESS: 14626  HIT:     1  MISS: 14625  HIT %: 0.00683714  MISS %: 99.9932  AVERAGE MISS PENALTY: 681.106
LLC3 PREFETCH  ACCESS: 107558  HIT: 51187  MISS: 56371  HIT %: 47.5901  MISS %: 52.4099  AVERAGE MISS PENALTY: 225.052
LLC3 WRITEBACK ACCESS: 14607  HIT: 13004  MISS:  1603  HIT %: 89.0258  MISS %: 10.9742  AVERAGE MISS PENALTY: 0
LLC3 PREFETCH  REQUESTED:     0  ISSUED:     0  USEFUL:  1445  USELESS: 450776
 USEFUL LOAD PREFETCHES:       1445 PREFETCH ISSUED TO LOWER LEVEL:     535428  ACCURACY: 0.269878
 TIMELY PREFETCHES:       1445 LATE PREFETCHES: 0 DROPPED PREFETCHES: 0
LLC3 AVERAGE MISS LATENCY: 310.509 cycles
LLC4 TOTAL     ACCESS: 139970  HIT: 66077  MISS: 73893  HIT %: 47.208  MISS %: 52.792  AVERAGE MISS PENALTY: 297.491
LLC4 LOAD      ACCESS:  1933  HIT:   808  MISS:  1125  HIT %: 41.8003  MISS %: 58.1997  AVERAGE MISS PENALTY: 220.312
LLC4 RFO       ACCESS: 14625  HIT:     0  MISS: 14625  HIT %:     0  MISS %:   100  AVERAGE MISS PENALTY: 675.426
LLC4 PREFETCH  ACCESS: 108813  HIT: 52280  MISS: 56533  HIT %: 48.0457  MISS %: 51.9543  AVERAGE MISS PENALTY: 209.728
LLC4 WRITEBACK ACCESS: 14599  HIT: 12989  MISS:  1610  HIT %: 88.9718  MISS %: 11.0282  AVERAGE MISS PENALTY: 0
LLC4 PREFETCH  REQUESTED:     0  ISSUED:     0  USEFUL:  1388  USELESS: 451702
 USEFUL LOAD PREFETCHES:       1388 PREFETCH ISSUED TO LOWER LEVEL:     553012  ACCURACY: 0.250989
 TIMELY PREFETCHES:       1388 LATE PREFETCHES: 0 DROPPED PREFETCHES: 0
LLC4 AVERAGE MISS LATENCY: 297.491 cycles
LLC5 TOTAL     ACCESS: 140827  HIT: 67089  MISS: 73738  HIT %: 47.6393  MISS %: 52.3607  AVERAGE MISS PENALTY: 297.448
LLC5 LOAD      ACCESS:  2564  HIT:  1484  MISS:  1080  HIT %: 57.8783  MISS %: 42.1217  AVERAGE MISS PENALTY: 214.04
LLC5 RFO       ACCESS: 14657  HIT:    32  MISS: 14625  HIT %: 0.218326  MISS %: 99.7817  AVERAGE MISS PENALTY: 668.343
LLC5 PREFETCH  ACCESS: 108932  HIT: 52465  MISS: 56467  HIT %: 48.1631  MISS %: 51.8369  AVERAGE MISS PENALTY: 211.23
LLC5 WRITEBACK ACCESS: 14674  HIT: 13108  MISS:  1566  HIT %: 89.3281  MISS %: 10.6719  AVERAGE MISS PENALTY: 0
LLC5 PREFETCH  REQUESTED:     0  ISSUED:     0  USEFUL:  1706  USELESS: 451828
 USEFUL LOAD PREFETCHES:       1706 PREFETCH ISSUED TO LOWER LEVEL:     570951  ACCURACY: 0.2988
 TIMELY PREFETCHES:       1706 LATE PREFETCHES: 0 DROPPED PREFETCHES: 0
LLC5 AVERAGE MISS LATENCY: 297.448 cycles
LLC6 TOTAL     ACCESS: 141416  HIT: 67640  MISS: 73776  HIT %: 47.8305  MISS %: 52.1695  AVERAGE MISS PENALTY: 313.711
LLC6 LOAD      ACCESS:  2690  HIT:  1536  MISS:  1154  HIT %: 57.1004  MISS %: 42.8996  AVERAGE MISS PENALTY: 256.021
LLC6 RFO       ACCESS: 14649  HIT:    24  MISS: 14625  HIT %: 0.163834  MISS %: 99.8362  AVERAGE MISS PENALTY: 696.264
LLC6 PREFETCH  ACCESS: 109464  HIT: 53110  MISS: 56354  HIT %: 48.5182  MISS %: 51.4818  AVERAGE MISS PENALTY: 224.758
LLC6 WRITEBACK ACCESS: 14613  HIT: 12970  MISS:  1643  HIT %: 88.7566  MISS %: 11.2434  AVERAGE MISS PENALTY: 0
LLC6 PREFETCH  REQUESTED:     0  ISSUED:     0  USEFUL:  1663  USELESS: 451122
 USEFUL LOAD PREFETCHES:       1663 PREFETCH ISSUED TO LOWER LEVEL:     666877  ACCURACY: 0.249371
 TIMELY PREFETCHES:       1663 LATE PREFETCHES: 0 DROPPED PREFETCHES: 0
LLC6 AVERAGE MISS LATENCY: 313.711 cycles
LLC7 TOTAL     ACCESS: 143721  HIT: 69927  MISS: 73794  HIT %: 48.6547  MISS %: 51.3453  AVERAGE MISS PENALTY: 312.73
LLC7 LOAD      ACCESS:  2914  HIT:  1885  MISS:  1029  HIT %: 64.6877  MISS %: 35.3123  AVERAGE MISS PENALTY: 215.837
LLC7 RFO       ACCESS: 14702  HIT:    52  MISS: 14650  HIT %: 0.353693  MISS %: 99.6463  AVERAGE MISS PENALTY: 693.9
LLC7 PREFETCH  ACCESS: 111438  HIT: 54921  MISS: 56517  HIT %: 49.2839  MISS %: 50.7161  AVERAGE MISS PENALTY: 224.532
LLC7 WRITEBACK ACCESS: 14667  HIT: 13069  MISS:  1598  HIT %: 89.1048  MISS %: 10.8952  AVERAGE MISS PENALTY: 0
LLC7 PREFETCH  REQUESTED:     0  ISSUED:     0  USEFUL:  2524  USELESS: 452492
 USEFUL LOAD PREFETCHES:       2524 PREFETCH ISSUED TO LOWER LEVEL:     659560  ACCURACY: 0.382679
 TIMELY PREFETCHES:       2524 LATE PREFETCHES: 0 DROPPED PREFETCHES: 0
LLC7 AVERAGE MISS LATENCY: 312.73 cycles
ROI Average ROB Stall Cycles:	5.76076
ROI Total ROB Stalls Cycles:	126503596
ROI TOTAL ROB counter      :	21959542
ROI Average Load ROB Stall Cycles:	12.4359
ROI Total Load ROB Stalls Cycle  :	38718757
ROI Total Load ROB stalls Counter:	3113477
Major fault: 0 Minor fault: 11250








Interconnect Stats 
LINK 0 BW : 0LINK 1 BW : 0LINK 2 BW : 0LINK 3 BW : 0LINK 4 BW : 0LINK 5 BW : 0LINK 6 BW : 0LINK 7 BW : 0
DRAM Statistics
 CHANNEL 0
 RQ ROW_BUFFER_HIT: 1073972  ROW_BUFFER_MISS: 1240524
 DBUS_CONGESTED: 1021456
 WQ ROW_BUFFER_HIT: 93632  ROW_BUFFER_MISS: 371741  FULL:     0

 CHANNEL 1
 RQ ROW_BUFFER_HIT: 1059045  ROW_BUFFER_MISS: 1255610
 DBUS_CONGESTED: 1021456
 WQ ROW_BUFFER_HIT: 92409  ROW_BUFFER_MISS: 373408  FULL:     0

 AVG_CONGESTED_CYCLE: 5
DRAM PAGES: 2097152
Allocated PAGES: 90000
L2C destructor called
L1D destructor called
L1I destructor called
STLB destructor called
DTLB destructor called
ITLB destructor called
L2C destructor called
L1D destructor called
L1I destructor called
STLB destructor called
DTLB destructor called
ITLB destructor called
L2C destructor called
L1D destructor called
L1I destructor called
STLB destructor called
DTLB destructor called
ITLB destructor called
L2C destructor called
L1D destructor called
L1I destructor called
STLB destructor called
DTLB destructor called
ITLB destructor called
L2C destructor called
L1D destructor called
L1I destructor called
STLB destructor called
DTLB destructor called
ITLB destructor called
L2C destructor called
L1D destructor called
L1I destructor called
STLB destructor called
DTLB destructor called
ITLB destructor called
L2C destructor called
L1D destructor called
L1I destructor called
STLB destructor called
DTLB destructor called
ITLB destructor called
L2C destructor called
L1D destructor called
L1I destructor called
STLB destructor called
DTLB destructor called
ITLB destructor called
