
*** ChampSim Multicore Out-of-Order Simulator ***

Warmup Instructions: 200000000
Simulation Instructions: 200000000
Number of CPUs: 8
threads:1

L1I Configuration:
L1I_SET:64
L1I_WAY:8
L1I_RQ_SIZE:64
L1I_WQ_SIZE:64
L1I_PQ_SIZE:8
L1I_MSHR_SIZE:8

L1D Configuration:
L1D_SET:64
L1D_WAY:12
L1D_RQ_SIZE:64
L1D_WQ_SIZE:64
L1D_PQ_SIZE:8
L1D_MSHR_SIZE:16

L2C Configuration:
L2C_SET:1024
L2C_WAY:8
L2C_RQ_SIZE:32
L2C_WQ_SIZE:32
L2C_PQ_SIZE:16
L2C_MSHR_SIZE:32

LLC Configuration:
LLC_SET:2048
LLC_WAY:16
LLC SLICES:8
LLC_RQ_SIZE:64
LLC_WQ_SIZE:64
LLC_PQ_SIZE:32
LLC_MSHR_SIZE:64

Interconnect OFF
Attacker deprioritize is: OFF
Off-chip DRAM Size: 8192 MB Channels: 2 Width: 64-bit Data Rate: 3200 MT/s
PAGE SIZE in KB: 4.000000 
PAGE SIZE in MB: 0.003906 
PAGE offset in bits: 12 
CEASER-S_LLC:0
MIRAGE : 1
CEASER_LATENCY:3
REMAP : OFF
Partitions : 1
Multi-Step : OFF
BFS : OFF

CPU 0 runs /home/anubhav/spec_2017/619.lbm_s-2676B.champsimtrace.xz
CPU 1 runs /home/anubhav/spec_2017/619.lbm_s-2676B.champsimtrace.xz
CPU 2 runs /home/anubhav/spec_2017/619.lbm_s-2676B.champsimtrace.xz
CPU 3 runs /home/anubhav/spec_2017/619.lbm_s-2676B.champsimtrace.xz
CPU 4 runs /home/anubhav/spec_2017/619.lbm_s-2676B.champsimtrace.xz
CPU 5 runs /home/anubhav/spec_2017/619.lbm_s-2676B.champsimtrace.xz
CPU 6 runs /home/anubhav/spec_2017/619.lbm_s-2676B.champsimtrace.xz
CPU 7 runs /home/anubhav/spec_2017/619.lbm_s-2676B.champsimtrace.xz
CPU 0 Bimodal branch predictor
Initialize Hawkeye state
Initialize Hawkeye state
Initialize Hawkeye state
Initialize Hawkeye state
Initialize Hawkeye state
Initialize Hawkeye state
Initialize Hawkeye state
Initialize Hawkeye state
CPU 1 Bimodal branch predictor
Initialize Hawkeye state
Initialize Hawkeye state
Initialize Hawkeye state
Initialize Hawkeye state
Initialize Hawkeye state
Initialize Hawkeye state
Initialize Hawkeye state
Initialize Hawkeye state
CPU 2 Bimodal branch predictor
Initialize Hawkeye state
Initialize Hawkeye state
Initialize Hawkeye state
Initialize Hawkeye state
Initialize Hawkeye state
Initialize Hawkeye state
Initialize Hawkeye state
Initialize Hawkeye state
CPU 3 Bimodal branch predictor
Initialize Hawkeye state
Initialize Hawkeye state
Initialize Hawkeye state
Initialize Hawkeye state
Initialize Hawkeye state
Initialize Hawkeye state
Initialize Hawkeye state
Initialize Hawkeye state
CPU 4 Bimodal branch predictor
Initialize Hawkeye state
Initialize Hawkeye state
Initialize Hawkeye state
Initialize Hawkeye state
Initialize Hawkeye state
Initialize Hawkeye state
Initialize Hawkeye state
Initialize Hawkeye state
CPU 5 Bimodal branch predictor
Initialize Hawkeye state
Initialize Hawkeye state
Initialize Hawkeye state
Initialize Hawkeye state
Initialize Hawkeye state
Initialize Hawkeye state
Initialize Hawkeye state
Initialize Hawkeye state
CPU 6 Bimodal branch predictor
Initialize Hawkeye state
Initialize Hawkeye state
Initialize Hawkeye state
Initialize Hawkeye state
Initialize Hawkeye state
Initialize Hawkeye state
Initialize Hawkeye state
Initialize Hawkeye state
CPU 7 Bimodal branch predictor
Initialize Hawkeye state
Initialize Hawkeye state
Initialize Hawkeye state
Initialize Hawkeye state
Initialize Hawkeye state
Initialize Hawkeye state
Initialize Hawkeye state
Initialize Hawkeye state
Heartbeat CPU 5 instructions: 10000002 cycles: 3949570 heartbeat IPC: 2.53192 cumulative IPC: 2.53192 (Simulation time: 0 hr 52 min 46 sec) 
 Total Blocks : 262144 Invalid Blocks : 1
Heartbeat CPU 7 instructions: 10000002 cycles: 3949570 heartbeat IPC: 2.53192 cumulative IPC: 2.53192 (Simulation time: 0 hr 52 min 46 sec) 
 Total Blocks : 262144 Invalid Blocks : 1
Heartbeat CPU 2 instructions: 10000002 cycles: 3949589 heartbeat IPC: 2.53191 cumulative IPC: 2.53191 (Simulation time: 0 hr 52 min 46 sec) 
 Total Blocks : 262144 Invalid Blocks : 1
Heartbeat CPU 0 instructions: 10000002 cycles: 3949636 heartbeat IPC: 2.53188 cumulative IPC: 2.53188 (Simulation time: 0 hr 52 min 46 sec) 
 Total Blocks : 262144 Invalid Blocks : 1
Heartbeat CPU 6 instructions: 10000002 cycles: 3949648 heartbeat IPC: 2.53187 cumulative IPC: 2.53187 (Simulation time: 0 hr 52 min 46 sec) 
 Total Blocks : 262144 Invalid Blocks : 1
Heartbeat CPU 3 instructions: 10000002 cycles: 3949659 heartbeat IPC: 2.53186 cumulative IPC: 2.53186 (Simulation time: 0 hr 52 min 46 sec) 
 Total Blocks : 262144 Invalid Blocks : 1
Heartbeat CPU 1 instructions: 10000002 cycles: 3949674 heartbeat IPC: 2.53186 cumulative IPC: 2.53186 (Simulation time: 0 hr 52 min 46 sec) 
 Total Blocks : 262144 Invalid Blocks : 1
Heartbeat CPU 4 instructions: 10000002 cycles: 3949726 heartbeat IPC: 2.53182 cumulative IPC: 2.53182 (Simulation time: 0 hr 52 min 46 sec) 
 Total Blocks : 262144 Invalid Blocks : 1
Heartbeat CPU 6 instructions: 20000000 cycles: 7885028 heartbeat IPC: 2.54105 cumulative IPC: 2.53645 (Simulation time: 1 hr 50 min 33 sec) 
 Total Blocks : 262144 Invalid Blocks : 0
Heartbeat CPU 1 instructions: 20000000 cycles: 7885074 heartbeat IPC: 2.54104 cumulative IPC: 2.53644 (Simulation time: 1 hr 50 min 33 sec) 
 Total Blocks : 262144 Invalid Blocks : 0
Heartbeat CPU 0 instructions: 20000000 cycles: 7885144 heartbeat IPC: 2.54097 cumulative IPC: 2.53642 (Simulation time: 1 hr 50 min 34 sec) 
 Total Blocks : 262144 Invalid Blocks : 0
Heartbeat CPU 3 instructions: 20000000 cycles: 7885166 heartbeat IPC: 2.54097 cumulative IPC: 2.53641 (Simulation time: 1 hr 50 min 34 sec) 
 Total Blocks : 262144 Invalid Blocks : 0
Heartbeat CPU 5 instructions: 20000000 cycles: 7885209 heartbeat IPC: 2.54088 cumulative IPC: 2.53639 (Simulation time: 1 hr 50 min 34 sec) 
 Total Blocks : 262144 Invalid Blocks : 0
Heartbeat CPU 2 instructions: 20000000 cycles: 7885212 heartbeat IPC: 2.54089 cumulative IPC: 2.53639 (Simulation time: 1 hr 50 min 34 sec) 
 Total Blocks : 262144 Invalid Blocks : 0
Heartbeat CPU 4 instructions: 20000000 cycles: 7885226 heartbeat IPC: 2.54097 cumulative IPC: 2.53639 (Simulation time: 1 hr 50 min 34 sec) 
 Total Blocks : 262144 Invalid Blocks : 0
Heartbeat CPU 7 instructions: 20000000 cycles: 7885379 heartbeat IPC: 2.54077 cumulative IPC: 2.53634 (Simulation time: 1 hr 50 min 34 sec) 
 Total Blocks : 262144 Invalid Blocks : 0
Heartbeat CPU 6 instructions: 30000003 cycles: 11802454 heartbeat IPC: 2.5527 cumulative IPC: 2.54184 (Simulation time: 3 hr 4 min 14 sec) 
 Total Blocks : 262144 Invalid Blocks : 0
Heartbeat CPU 1 instructions: 30000003 cycles: 11802548 heartbeat IPC: 2.55267 cumulative IPC: 2.54182 (Simulation time: 3 hr 4 min 14 sec) 
 Total Blocks : 262144 Invalid Blocks : 0
Heartbeat CPU 5 instructions: 30000003 cycles: 11802595 heartbeat IPC: 2.55272 cumulative IPC: 2.54181 (Simulation time: 3 hr 4 min 14 sec) 
 Total Blocks : 262144 Invalid Blocks : 0
Heartbeat CPU 7 instructions: 30000003 cycles: 11802646 heartbeat IPC: 2.5528 cumulative IPC: 2.5418 (Simulation time: 3 hr 4 min 14 sec) 
 Total Blocks : 262144 Invalid Blocks : 0
Heartbeat CPU 3 instructions: 30000003 cycles: 11802656 heartbeat IPC: 2.55266 cumulative IPC: 2.5418 (Simulation time: 3 hr 4 min 14 sec) 
 Total Blocks : 262144 Invalid Blocks : 0
Heartbeat CPU 0 instructions: 30000003 cycles: 11802701 heartbeat IPC: 2.55261 cumulative IPC: 2.54179 (Simulation time: 3 hr 4 min 14 sec) 
 Total Blocks : 262144 Invalid Blocks : 0
Heartbeat CPU 4 instructions: 30000003 cycles: 11802768 heartbeat IPC: 2.55262 cumulative IPC: 2.54178 (Simulation time: 3 hr 4 min 14 sec) 
 Total Blocks : 262144 Invalid Blocks : 0
Heartbeat CPU 2 instructions: 30000003 cycles: 11802862 heartbeat IPC: 2.55255 cumulative IPC: 2.54176 (Simulation time: 3 hr 4 min 14 sec) 
 Total Blocks : 262144 Invalid Blocks : 0
Heartbeat CPU 6 instructions: 40000000 cycles: 15677291 heartbeat IPC: 2.58075 cumulative IPC: 2.55146 (Simulation time: 4 hr 25 min 43 sec) 
 Total Blocks : 262144 Invalid Blocks : 0
Heartbeat CPU 1 instructions: 40000000 cycles: 15677673 heartbeat IPC: 2.58056 cumulative IPC: 2.5514 (Simulation time: 4 hr 25 min 44 sec) 
 Total Blocks : 262144 Invalid Blocks : 0
Heartbeat CPU 4 instructions: 40000000 cycles: 15677734 heartbeat IPC: 2.58067 cumulative IPC: 2.55139 (Simulation time: 4 hr 25 min 44 sec) 
 Total Blocks : 262144 Invalid Blocks : 0
Heartbeat CPU 7 instructions: 40000000 cycles: 15677893 heartbeat IPC: 2.58048 cumulative IPC: 2.55136 (Simulation time: 4 hr 25 min 44 sec) 
 Total Blocks : 262144 Invalid Blocks : 0
Heartbeat CPU 3 instructions: 40000000 cycles: 15677940 heartbeat IPC: 2.58046 cumulative IPC: 2.55136 (Simulation time: 4 hr 25 min 44 sec) 
 Total Blocks : 262144 Invalid Blocks : 0
Heartbeat CPU 5 instructions: 40000000 cycles: 15678058 heartbeat IPC: 2.58034 cumulative IPC: 2.55134 (Simulation time: 4 hr 25 min 44 sec) 
 Total Blocks : 262144 Invalid Blocks : 0
Heartbeat CPU 2 instructions: 40000000 cycles: 15678253 heartbeat IPC: 2.58038 cumulative IPC: 2.5513 (Simulation time: 4 hr 25 min 44 sec) 
 Total Blocks : 262144 Invalid Blocks : 0
Heartbeat CPU 0 instructions: 40000000 cycles: 15678336 heartbeat IPC: 2.58022 cumulative IPC: 2.55129 (Simulation time: 4 hr 25 min 44 sec) 
 Total Blocks : 262144 Invalid Blocks : 0
Heartbeat CPU 6 instructions: 50000002 cycles: 19515268 heartbeat IPC: 2.60554 cumulative IPC: 2.5621 (Simulation time: 5 hr 51 min 41 sec) 
 Total Blocks : 262144 Invalid Blocks : 0
Heartbeat CPU 1 instructions: 50000002 cycles: 19516053 heartbeat IPC: 2.60527 cumulative IPC: 2.56199 (Simulation time: 5 hr 51 min 42 sec) 
 Total Blocks : 262144 Invalid Blocks : 0
Heartbeat CPU 4 instructions: 50000002 cycles: 19516084 heartbeat IPC: 2.60529 cumulative IPC: 2.56199 (Simulation time: 5 hr 51 min 42 sec) 
 Total Blocks : 262144 Invalid Blocks : 0
Heartbeat CPU 7 instructions: 50000002 cycles: 19516099 heartbeat IPC: 2.60538 cumulative IPC: 2.56199 (Simulation time: 5 hr 51 min 42 sec) 
 Total Blocks : 262144 Invalid Blocks : 0
Heartbeat CPU 3 instructions: 50000002 cycles: 19516465 heartbeat IPC: 2.60517 cumulative IPC: 2.56194 (Simulation time: 5 hr 51 min 42 sec) 
 Total Blocks : 262144 Invalid Blocks : 0
Heartbeat CPU 5 instructions: 50000002 cycles: 19516493 heartbeat IPC: 2.60523 cumulative IPC: 2.56194 (Simulation time: 5 hr 51 min 43 sec) 
 Total Blocks : 262144 Invalid Blocks : 0
Heartbeat CPU 2 instructions: 50000002 cycles: 19516745 heartbeat IPC: 2.60519 cumulative IPC: 2.5619 (Simulation time: 5 hr 51 min 43 sec) 
 Total Blocks : 262144 Invalid Blocks : 0
Heartbeat CPU 0 instructions: 50000002 cycles: 19517315 heartbeat IPC: 2.60486 cumulative IPC: 2.56183 (Simulation time: 5 hr 51 min 44 sec) 
 Total Blocks : 262144 Invalid Blocks : 0
Heartbeat CPU 6 instructions: 60000001 cycles: 23321443 heartbeat IPC: 2.62731 cumulative IPC: 2.57274 (Simulation time: 7 hr 24 min 50 sec) 
 Total Blocks : 262144 Invalid Blocks : 0
Heartbeat CPU 7 instructions: 60000001 cycles: 23321637 heartbeat IPC: 2.62775 cumulative IPC: 2.57272 (Simulation time: 7 hr 24 min 50 sec) 
 Total Blocks : 262144 Invalid Blocks : 0
Heartbeat CPU 1 instructions: 60000001 cycles: 23321655 heartbeat IPC: 2.6277 cumulative IPC: 2.57272 (Simulation time: 7 hr 24 min 50 sec) 
 Total Blocks : 262144 Invalid Blocks : 0
Heartbeat CPU 4 instructions: 60000001 cycles: 23321899 heartbeat IPC: 2.62756 cumulative IPC: 2.57269 (Simulation time: 7 hr 24 min 50 sec) 
 Total Blocks : 262144 Invalid Blocks : 0
Heartbeat CPU 3 instructions: 60000001 cycles: 23322528 heartbeat IPC: 2.62739 cumulative IPC: 2.57262 (Simulation time: 7 hr 24 min 51 sec) 
 Total Blocks : 262144 Invalid Blocks : 0
Heartbeat CPU 5 instructions: 60000001 cycles: 23323019 heartbeat IPC: 2.62707 cumulative IPC: 2.57257 (Simulation time: 7 hr 24 min 52 sec) 
 Total Blocks : 262144 Invalid Blocks : 0
Heartbeat CPU 2 instructions: 60000001 cycles: 23323058 heartbeat IPC: 2.62721 cumulative IPC: 2.57256 (Simulation time: 7 hr 24 min 52 sec) 
 Total Blocks : 262144 Invalid Blocks : 0
Heartbeat CPU 0 instructions: 60000001 cycles: 23323832 heartbeat IPC: 2.62707 cumulative IPC: 2.57248 (Simulation time: 7 hr 24 min 53 sec) 
 Total Blocks : 262144 Invalid Blocks : 0
Heartbeat CPU 7 instructions: 70000000 cycles: 27095914 heartbeat IPC: 2.64951 cumulative IPC: 2.58342 (Simulation time: 9 hr 2 min 13 sec) 
 Total Blocks : 262144 Invalid Blocks : 0
Heartbeat CPU 1 instructions: 70000000 cycles: 27095956 heartbeat IPC: 2.6495 cumulative IPC: 2.58341 (Simulation time: 9 hr 2 min 14 sec) 
 Total Blocks : 262144 Invalid Blocks : 0
Heartbeat CPU 4 instructions: 70000000 cycles: 27096131 heartbeat IPC: 2.64955 cumulative IPC: 2.58339 (Simulation time: 9 hr 2 min 14 sec) 
 Total Blocks : 262144 Invalid Blocks : 0
Heartbeat CPU 6 instructions: 70000000 cycles: 27096193 heartbeat IPC: 2.64918 cumulative IPC: 2.58339 (Simulation time: 9 hr 2 min 14 sec) 
 Total Blocks : 262144 Invalid Blocks : 0
Heartbeat CPU 3 instructions: 70000000 cycles: 27096445 heartbeat IPC: 2.64977 cumulative IPC: 2.58336 (Simulation time: 9 hr 2 min 15 sec) 
 Total Blocks : 262144 Invalid Blocks : 0
Heartbeat CPU 2 instructions: 70000000 cycles: 27097023 heartbeat IPC: 2.64973 cumulative IPC: 2.58331 (Simulation time: 9 hr 2 min 16 sec) 
 Total Blocks : 262144 Invalid Blocks : 0
Heartbeat CPU 5 instructions: 70000000 cycles: 27097025 heartbeat IPC: 2.6497 cumulative IPC: 2.58331 (Simulation time: 9 hr 2 min 16 sec) 
 Total Blocks : 262144 Invalid Blocks : 0
Heartbeat CPU 0 instructions: 70000000 cycles: 27098506 heartbeat IPC: 2.64924 cumulative IPC: 2.58317 (Simulation time: 9 hr 2 min 18 sec) 
 Total Blocks : 262144 Invalid Blocks : 0
Heartbeat CPU 1 instructions: 80000003 cycles: 30808243 heartbeat IPC: 2.69376 cumulative IPC: 2.59671 (Simulation time: 10 hr 37 min 54 sec) 
 Total Blocks : 262144 Invalid Blocks : 0
Heartbeat CPU 7 instructions: 80000003 cycles: 30808274 heartbeat IPC: 2.69371 cumulative IPC: 2.59671 (Simulation time: 10 hr 37 min 54 sec) 
 Total Blocks : 262144 Invalid Blocks : 0
Heartbeat CPU 4 instructions: 80000003 cycles: 30808411 heartbeat IPC: 2.69376 cumulative IPC: 2.59669 (Simulation time: 10 hr 37 min 55 sec) 
 Total Blocks : 262144 Invalid Blocks : 0
Heartbeat CPU 6 instructions: 80000003 cycles: 30808737 heartbeat IPC: 2.69357 cumulative IPC: 2.59667 (Simulation time: 10 hr 37 min 55 sec) 
 Total Blocks : 262144 Invalid Blocks : 0
Heartbeat CPU 3 instructions: 80000003 cycles: 30808892 heartbeat IPC: 2.69364 cumulative IPC: 2.59665 (Simulation time: 10 hr 37 min 55 sec) 
 Total Blocks : 262144 Invalid Blocks : 0
Heartbeat CPU 5 instructions: 80000003 cycles: 30809228 heartbeat IPC: 2.69382 cumulative IPC: 2.59662 (Simulation time: 10 hr 37 min 55 sec) 
 Total Blocks : 262144 Invalid Blocks : 0
Heartbeat CPU 2 instructions: 80000003 cycles: 30809355 heartbeat IPC: 2.69373 cumulative IPC: 2.59661 (Simulation time: 10 hr 37 min 56 sec) 
 Total Blocks : 262144 Invalid Blocks : 0
Heartbeat CPU 0 instructions: 80000003 cycles: 30810801 heartbeat IPC: 2.69375 cumulative IPC: 2.59649 (Simulation time: 10 hr 37 min 58 sec) 
 Total Blocks : 262144 Invalid Blocks : 0
Heartbeat CPU 7 instructions: 90000002 cycles: 34521129 heartbeat IPC: 2.69334 cumulative IPC: 2.6071 (Simulation time: 12 hr 15 min 19 sec) 
 Total Blocks : 262144 Invalid Blocks : 0
Heartbeat CPU 6 instructions: 90000002 cycles: 34521648 heartbeat IPC: 2.6933 cumulative IPC: 2.60706 (Simulation time: 12 hr 15 min 20 sec) 
 Total Blocks : 262144 Invalid Blocks : 0
Heartbeat CPU 1 instructions: 90000002 cycles: 34521761 heartbeat IPC: 2.69286 cumulative IPC: 2.60705 (Simulation time: 12 hr 15 min 20 sec) 
 Total Blocks : 262144 Invalid Blocks : 0
Heartbeat CPU 4 instructions: 90000002 cycles: 34521815 heartbeat IPC: 2.69295 cumulative IPC: 2.60705 (Simulation time: 12 hr 15 min 21 sec) 
 Total Blocks : 262144 Invalid Blocks : 0
Heartbeat CPU 3 instructions: 90000002 cycles: 34522229 heartbeat IPC: 2.693 cumulative IPC: 2.60702 (Simulation time: 12 hr 15 min 21 sec) 
 Total Blocks : 262144 Invalid Blocks : 0
Heartbeat CPU 5 instructions: 90000002 cycles: 34522637 heartbeat IPC: 2.69294 cumulative IPC: 2.60699 (Simulation time: 12 hr 15 min 22 sec) 
 Total Blocks : 262144 Invalid Blocks : 0
Heartbeat CPU 2 instructions: 90000002 cycles: 34522910 heartbeat IPC: 2.69284 cumulative IPC: 2.60696 (Simulation time: 12 hr 15 min 22 sec) 
 Total Blocks : 262144 Invalid Blocks : 0
Heartbeat CPU 0 instructions: 90000002 cycles: 34523734 heartbeat IPC: 2.69329 cumulative IPC: 2.6069 (Simulation time: 12 hr 15 min 23 sec) 
 Total Blocks : 262144 Invalid Blocks : 0
Heartbeat CPU 7 instructions: 100000001 cycles: 38195074 heartbeat IPC: 2.72187 cumulative IPC: 2.61814 (Simulation time: 13 hr 49 min 49 sec) 
 Total Blocks : 262144 Invalid Blocks : 0
Heartbeat CPU 4 instructions: 100000001 cycles: 38195717 heartbeat IPC: 2.7219 cumulative IPC: 2.61809 (Simulation time: 13 hr 49 min 49 sec) 
 Total Blocks : 262144 Invalid Blocks : 0
Heartbeat CPU 6 instructions: 100000001 cycles: 38195746 heartbeat IPC: 2.72176 cumulative IPC: 2.61809 (Simulation time: 13 hr 49 min 49 sec) 
 Total Blocks : 262144 Invalid Blocks : 0
Heartbeat CPU 1 instructions: 100000001 cycles: 38195911 heartbeat IPC: 2.72172 cumulative IPC: 2.61808 (Simulation time: 13 hr 49 min 49 sec) 
 Total Blocks : 262144 Invalid Blocks : 0
Heartbeat CPU 3 instructions: 100000001 cycles: 38196451 heartbeat IPC: 2.72166 cumulative IPC: 2.61804 (Simulation time: 13 hr 49 min 50 sec) 
 Total Blocks : 262144 Invalid Blocks : 0
Heartbeat CPU 5 instructions: 100000001 cycles: 38197061 heartbeat IPC: 2.72151 cumulative IPC: 2.618 (Simulation time: 13 hr 49 min 51 sec) 
 Total Blocks : 262144 Invalid Blocks : 0
Heartbeat CPU 2 instructions: 100000001 cycles: 38197509 heartbeat IPC: 2.72139 cumulative IPC: 2.61797 (Simulation time: 13 hr 49 min 51 sec) 
 Total Blocks : 262144 Invalid Blocks : 0
Heartbeat CPU 0 instructions: 100000001 cycles: 38198039 heartbeat IPC: 2.7216 cumulative IPC: 2.61794 (Simulation time: 13 hr 49 min 52 sec) 
 Total Blocks : 262144 Invalid Blocks : 0
Heartbeat CPU 7 instructions: 110000000 cycles: 41858420 heartbeat IPC: 2.72974 cumulative IPC: 2.62791 (Simulation time: 15 hr 27 min 46 sec) 
 Total Blocks : 262144 Invalid Blocks : 0
Heartbeat CPU 4 instructions: 110000000 cycles: 41858613 heartbeat IPC: 2.73008 cumulative IPC: 2.62789 (Simulation time: 15 hr 27 min 46 sec) 
 Total Blocks : 262144 Invalid Blocks : 0
Heartbeat CPU 6 instructions: 110000000 cycles: 41858754 heartbeat IPC: 2.73 cumulative IPC: 2.62789 (Simulation time: 15 hr 27 min 46 sec) 
 Total Blocks : 262144 Invalid Blocks : 0
Heartbeat CPU 1 instructions: 110000000 cycles: 41859195 heartbeat IPC: 2.72979 cumulative IPC: 2.62786 (Simulation time: 15 hr 27 min 48 sec) 
 Total Blocks : 262144 Invalid Blocks : 0
Heartbeat CPU 3 instructions: 110000000 cycles: 41859381 heartbeat IPC: 2.73005 cumulative IPC: 2.62785 (Simulation time: 15 hr 27 min 48 sec) 
 Total Blocks : 262144 Invalid Blocks : 0
Heartbeat CPU 5 instructions: 110000000 cycles: 41860152 heartbeat IPC: 2.72993 cumulative IPC: 2.6278 (Simulation time: 15 hr 27 min 50 sec) 
 Total Blocks : 262144 Invalid Blocks : 0
Heartbeat CPU 2 instructions: 110000000 cycles: 41860233 heartbeat IPC: 2.73021 cumulative IPC: 2.62779 (Simulation time: 15 hr 27 min 50 sec) 
 Total Blocks : 262144 Invalid Blocks : 0
Heartbeat CPU 0 instructions: 110000000 cycles: 41861163 heartbeat IPC: 2.72991 cumulative IPC: 2.62773 (Simulation time: 15 hr 27 min 53 sec) 
 Total Blocks : 262144 Invalid Blocks : 0
Heartbeat CPU 7 instructions: 120000002 cycles: 45493873 heartbeat IPC: 2.75069 cumulative IPC: 2.63772 (Simulation time: 17 hr 5 min 56 sec) 
 Total Blocks : 262144 Invalid Blocks : 0
Heartbeat CPU 6 instructions: 120000002 cycles: 45494018 heartbeat IPC: 2.75083 cumulative IPC: 2.63771 (Simulation time: 17 hr 5 min 57 sec) 
 Total Blocks : 262144 Invalid Blocks : 0
Heartbeat CPU 4 instructions: 120000002 cycles: 45494043 heartbeat IPC: 2.75071 cumulative IPC: 2.63771 (Simulation time: 17 hr 5 min 57 sec) 
 Total Blocks : 262144 Invalid Blocks : 0
Heartbeat CPU 1 instructions: 120000002 cycles: 45494737 heartbeat IPC: 2.75062 cumulative IPC: 2.63767 (Simulation time: 17 hr 5 min 58 sec) 
 Total Blocks : 262144 Invalid Blocks : 0
Heartbeat CPU 3 instructions: 120000002 cycles: 45494772 heartbeat IPC: 2.75074 cumulative IPC: 2.63767 (Simulation time: 17 hr 5 min 58 sec) 
 Total Blocks : 262144 Invalid Blocks : 0
Heartbeat CPU 5 instructions: 120000002 cycles: 45495346 heartbeat IPC: 2.75089 cumulative IPC: 2.63763 (Simulation time: 17 hr 5 min 59 sec) 
 Total Blocks : 262144 Invalid Blocks : 0
Heartbeat CPU 2 instructions: 120000002 cycles: 45495601 heartbeat IPC: 2.75075 cumulative IPC: 2.63762 (Simulation time: 17 hr 5 min 59 sec) 
 Total Blocks : 262144 Invalid Blocks : 0
Heartbeat CPU 0 instructions: 120000002 cycles: 45496436 heartbeat IPC: 2.75083 cumulative IPC: 2.63757 (Simulation time: 17 hr 6 min 1 sec) 
 Total Blocks : 262144 Invalid Blocks : 0
Heartbeat CPU 4 instructions: 130000003 cycles: 49109528 heartbeat IPC: 2.76588 cumulative IPC: 2.64714 (Simulation time: 18 hr 45 min 18 sec) 
 Total Blocks : 262144 Invalid Blocks : 0
Heartbeat CPU 7 instructions: 130000003 cycles: 49109643 heartbeat IPC: 2.76566 cumulative IPC: 2.64714 (Simulation time: 18 hr 45 min 18 sec) 
 Total Blocks : 262144 Invalid Blocks : 0
Heartbeat CPU 6 instructions: 130000003 cycles: 49109757 heartbeat IPC: 2.76569 cumulative IPC: 2.64713 (Simulation time: 18 hr 45 min 18 sec) 
 Total Blocks : 262144 Invalid Blocks : 0
Heartbeat CPU 1 instructions: 130000003 cycles: 49110277 heartbeat IPC: 2.76584 cumulative IPC: 2.6471 (Simulation time: 18 hr 45 min 19 sec) 
 Total Blocks : 262144 Invalid Blocks : 0
Heartbeat CPU 3 instructions: 130000003 cycles: 49110326 heartbeat IPC: 2.76583 cumulative IPC: 2.6471 (Simulation time: 18 hr 45 min 19 sec) 
 Total Blocks : 262144 Invalid Blocks : 0
Heartbeat CPU 5 instructions: 130000003 cycles: 49110885 heartbeat IPC: 2.76584 cumulative IPC: 2.64707 (Simulation time: 18 hr 45 min 19 sec) 
 Total Blocks : 262144 Invalid Blocks : 0
Heartbeat CPU 2 instructions: 130000003 cycles: 49110956 heartbeat IPC: 2.76598 cumulative IPC: 2.64707 (Simulation time: 18 hr 45 min 19 sec) 
 Total Blocks : 262144 Invalid Blocks : 0
Heartbeat CPU 0 instructions: 130000003 cycles: 49111964 heartbeat IPC: 2.76585 cumulative IPC: 2.64701 (Simulation time: 18 hr 45 min 21 sec) 
 Total Blocks : 262144 Invalid Blocks : 0
Heartbeat CPU 4 instructions: 140000003 cycles: 52720081 heartbeat IPC: 2.76966 cumulative IPC: 2.65553 (Simulation time: 20 hr 28 min 1 sec) 
 Total Blocks : 262144 Invalid Blocks : 0
Heartbeat CPU 7 instructions: 140000003 cycles: 52720331 heartbeat IPC: 2.76956 cumulative IPC: 2.65552 (Simulation time: 20 hr 28 min 1 sec) 
 Total Blocks : 262144 Invalid Blocks : 0
Heartbeat CPU 6 instructions: 140000003 cycles: 52720545 heartbeat IPC: 2.76948 cumulative IPC: 2.65551 (Simulation time: 20 hr 28 min 2 sec) 
 Total Blocks : 262144 Invalid Blocks : 0
Heartbeat CPU 3 instructions: 140000003 cycles: 52720963 heartbeat IPC: 2.76959 cumulative IPC: 2.65549 (Simulation time: 20 hr 28 min 2 sec) 
 Total Blocks : 262144 Invalid Blocks : 0
Heartbeat CPU 1 instructions: 140000003 cycles: 52721169 heartbeat IPC: 2.7694 cumulative IPC: 2.65548 (Simulation time: 20 hr 28 min 2 sec) 
 Total Blocks : 262144 Invalid Blocks : 0
Heartbeat CPU 5 instructions: 140000003 cycles: 52721291 heartbeat IPC: 2.76977 cumulative IPC: 2.65547 (Simulation time: 20 hr 28 min 2 sec) 
 Total Blocks : 262144 Invalid Blocks : 0
Heartbeat CPU 2 instructions: 140000003 cycles: 52721452 heartbeat IPC: 2.7697 cumulative IPC: 2.65547 (Simulation time: 20 hr 28 min 3 sec) 
 Total Blocks : 262144 Invalid Blocks : 0
Heartbeat CPU 0 instructions: 140000003 cycles: 52722464 heartbeat IPC: 2.7697 cumulative IPC: 2.65541 (Simulation time: 20 hr 28 min 4 sec) 
 Total Blocks : 262144 Invalid Blocks : 0
Heartbeat CPU 4 instructions: 150000002 cycles: 56307926 heartbeat IPC: 2.78719 cumulative IPC: 2.66392 (Simulation time: 22 hr 4 min 46 sec) 
 Total Blocks : 262144 Invalid Blocks : 0
Heartbeat CPU 7 instructions: 150000002 cycles: 56308134 heartbeat IPC: 2.78722 cumulative IPC: 2.66391 (Simulation time: 22 hr 4 min 46 sec) 
 Total Blocks : 262144 Invalid Blocks : 0
Heartbeat CPU 6 instructions: 150000002 cycles: 56308378 heartbeat IPC: 2.7872 cumulative IPC: 2.6639 (Simulation time: 22 hr 4 min 46 sec) 
 Total Blocks : 262144 Invalid Blocks : 0
Heartbeat CPU 3 instructions: 150000002 cycles: 56308874 heartbeat IPC: 2.78714 cumulative IPC: 2.66388 (Simulation time: 22 hr 4 min 48 sec) 
 Total Blocks : 262144 Invalid Blocks : 0
Heartbeat CPU 1 instructions: 150000002 cycles: 56308978 heartbeat IPC: 2.78722 cumulative IPC: 2.66387 (Simulation time: 22 hr 4 min 48 sec) 
 Total Blocks : 262144 Invalid Blocks : 0
Heartbeat CPU 5 instructions: 150000002 cycles: 56309145 heartbeat IPC: 2.78718 cumulative IPC: 2.66387 (Simulation time: 22 hr 4 min 48 sec) 
 Total Blocks : 262144 Invalid Blocks : 0
Heartbeat CPU 2 instructions: 150000002 cycles: 56309350 heartbeat IPC: 2.78715 cumulative IPC: 2.66386 (Simulation time: 22 hr 4 min 48 sec) 
 Total Blocks : 262144 Invalid Blocks : 0
Heartbeat CPU 0 instructions: 150000002 cycles: 56310263 heartbeat IPC: 2.78722 cumulative IPC: 2.66381 (Simulation time: 22 hr 4 min 49 sec) 
 Total Blocks : 262144 Invalid Blocks : 0
Heartbeat CPU 4 instructions: 160000002 cycles: 59877268 heartbeat IPC: 2.80164 cumulative IPC: 2.67213 (Simulation time: 23 hr 49 min 36 sec) 
 Total Blocks : 262144 Invalid Blocks : 0
Heartbeat CPU 7 instructions: 160000002 cycles: 59877321 heartbeat IPC: 2.80176 cumulative IPC: 2.67213 (Simulation time: 23 hr 49 min 36 sec) 
 Total Blocks : 262144 Invalid Blocks : 0
Heartbeat CPU 6 instructions: 160000002 cycles: 59877892 heartbeat IPC: 2.8015 cumulative IPC: 2.6721 (Simulation time: 23 hr 49 min 38 sec) 
 Total Blocks : 262144 Invalid Blocks : 0
Heartbeat CPU 3 instructions: 160000002 cycles: 59878425 heartbeat IPC: 2.80147 cumulative IPC: 2.67208 (Simulation time: 23 hr 49 min 38 sec) 
 Total Blocks : 262144 Invalid Blocks : 0
Heartbeat CPU 5 instructions: 160000002 cycles: 59878605 heartbeat IPC: 2.80154 cumulative IPC: 2.67207 (Simulation time: 23 hr 49 min 38 sec) 
 Total Blocks : 262144 Invalid Blocks : 0
Heartbeat CPU 1 instructions: 160000002 cycles: 59878635 heartbeat IPC: 2.80139 cumulative IPC: 2.67207 (Simulation time: 23 hr 49 min 38 sec) 
 Total Blocks : 262144 Invalid Blocks : 0
Heartbeat CPU 2 instructions: 160000002 cycles: 59879010 heartbeat IPC: 2.80139 cumulative IPC: 2.67206 (Simulation time: 23 hr 49 min 40 sec) 
 Total Blocks : 262144 Invalid Blocks : 0
Heartbeat CPU 0 instructions: 160000002 cycles: 59879736 heartbeat IPC: 2.80153 cumulative IPC: 2.67202 (Simulation time: 23 hr 49 min 41 sec) 
 Total Blocks : 262144 Invalid Blocks : 0
Heartbeat CPU 7 instructions: 170000000 cycles: 63443142 heartbeat IPC: 2.8044 cumulative IPC: 2.67956 (Simulation time: 25 hr 22 min 50 sec) 
 Total Blocks : 262144 Invalid Blocks : 0
Heartbeat CPU 4 instructions: 170000000 cycles: 63443333 heartbeat IPC: 2.80421 cumulative IPC: 2.67956 (Simulation time: 25 hr 22 min 51 sec) 
 Total Blocks : 262144 Invalid Blocks : 0
Heartbeat CPU 6 instructions: 170000000 cycles: 63443805 heartbeat IPC: 2.80433 cumulative IPC: 2.67954 (Simulation time: 25 hr 22 min 52 sec) 
 Total Blocks : 262144 Invalid Blocks : 0
Heartbeat CPU 3 instructions: 170000000 cycles: 63444292 heartbeat IPC: 2.80437 cumulative IPC: 2.67952 (Simulation time: 25 hr 22 min 52 sec) 
 Total Blocks : 262144 Invalid Blocks : 0
Heartbeat CPU 5 instructions: 170000000 cycles: 63444478 heartbeat IPC: 2.80436 cumulative IPC: 2.67951 (Simulation time: 25 hr 22 min 53 sec) 
 Total Blocks : 262144 Invalid Blocks : 0
Heartbeat CPU 1 instructions: 170000000 cycles: 63444795 heartbeat IPC: 2.80414 cumulative IPC: 2.67949 (Simulation time: 25 hr 22 min 53 sec) 
 Total Blocks : 262144 Invalid Blocks : 0
Heartbeat CPU 2 instructions: 170000000 cycles: 63444967 heartbeat IPC: 2.8043 cumulative IPC: 2.67949 (Simulation time: 25 hr 22 min 53 sec) 
 Total Blocks : 262144 Invalid Blocks : 0
Heartbeat CPU 0 instructions: 170000000 cycles: 63445571 heartbeat IPC: 2.80439 cumulative IPC: 2.67946 (Simulation time: 25 hr 22 min 54 sec) 
 Total Blocks : 262144 Invalid Blocks : 0
Heartbeat CPU 7 instructions: 180000002 cycles: 67008339 heartbeat IPC: 2.80489 cumulative IPC: 2.68623 (Simulation time: 27 hr 11 min 5 sec) 
 Total Blocks : 262144 Invalid Blocks : 0
Heartbeat CPU 4 instructions: 180000002 cycles: 67008604 heartbeat IPC: 2.80484 cumulative IPC: 2.68622 (Simulation time: 27 hr 11 min 6 sec) 
 Total Blocks : 262144 Invalid Blocks : 0
Heartbeat CPU 6 instructions: 180000002 cycles: 67008989 heartbeat IPC: 2.8049 cumulative IPC: 2.68621 (Simulation time: 27 hr 11 min 6 sec) 
 Total Blocks : 262144 Invalid Blocks : 0
Heartbeat CPU 3 instructions: 180000002 cycles: 67009441 heartbeat IPC: 2.80493 cumulative IPC: 2.68619 (Simulation time: 27 hr 11 min 7 sec) 
 Total Blocks : 262144 Invalid Blocks : 0
Heartbeat CPU 5 instructions: 180000002 cycles: 67009691 heartbeat IPC: 2.80488 cumulative IPC: 2.68618 (Simulation time: 27 hr 11 min 8 sec) 
 Total Blocks : 262144 Invalid Blocks : 0
Heartbeat CPU 1 instructions: 180000002 cycles: 67009948 heartbeat IPC: 2.80493 cumulative IPC: 2.68617 (Simulation time: 27 hr 11 min 9 sec) 
 Total Blocks : 262144 Invalid Blocks : 0
Heartbeat CPU 2 instructions: 180000002 cycles: 67010006 heartbeat IPC: 2.80502 cumulative IPC: 2.68617 (Simulation time: 27 hr 11 min 9 sec) 
 Total Blocks : 262144 Invalid Blocks : 0
Heartbeat CPU 0 instructions: 180000002 cycles: 67010671 heartbeat IPC: 2.80497 cumulative IPC: 2.68614 (Simulation time: 27 hr 11 min 10 sec) 
 Total Blocks : 262144 Invalid Blocks : 0
Heartbeat CPU 7 instructions: 190000003 cycles: 70559342 heartbeat IPC: 2.81611 cumulative IPC: 2.69277 (Simulation time: 29 hr 3 min 54 sec) 
 Total Blocks : 262144 Invalid Blocks : 0
Heartbeat CPU 4 instructions: 190000003 cycles: 70559412 heartbeat IPC: 2.81626 cumulative IPC: 2.69277 (Simulation time: 29 hr 3 min 54 sec) 
 Total Blocks : 262144 Invalid Blocks : 0
Heartbeat CPU 6 instructions: 190000003 cycles: 70559686 heartbeat IPC: 2.81635 cumulative IPC: 2.69276 (Simulation time: 29 hr 3 min 54 sec) 
 Total Blocks : 262144 Invalid Blocks : 0
Heartbeat CPU 3 instructions: 190000003 cycles: 70560392 heartbeat IPC: 2.81615 cumulative IPC: 2.69273 (Simulation time: 29 hr 3 min 56 sec) 
 Total Blocks : 262144 Invalid Blocks : 0
Heartbeat CPU 5 instructions: 190000003 cycles: 70560488 heartbeat IPC: 2.81627 cumulative IPC: 2.69273 (Simulation time: 29 hr 3 min 56 sec) 
 Total Blocks : 262144 Invalid Blocks : 0
Heartbeat CPU 1 instructions: 190000003 cycles: 70560811 heartbeat IPC: 2.81622 cumulative IPC: 2.69271 (Simulation time: 29 hr 3 min 56 sec) 
 Total Blocks : 262144 Invalid Blocks : 0
Heartbeat CPU 2 instructions: 190000001 cycles: 70560872 heartbeat IPC: 2.81621 cumulative IPC: 2.69271 (Simulation time: 29 hr 3 min 56 sec) 
 Total Blocks : 262144 Invalid Blocks : 0
Heartbeat CPU 0 instructions: 190000003 cycles: 70561537 heartbeat IPC: 2.81621 cumulative IPC: 2.69269 (Simulation time: 29 hr 3 min 59 sec) 
 Total Blocks : 262144 Invalid Blocks : 0
Heartbeat CPU 7 instructions: 200000001 cycles: 74104676 heartbeat IPC: 2.82061 cumulative IPC: 2.69888 (Simulation time: 30 hr 59 min 38 sec) 
 Total Blocks : 262144 Invalid Blocks : 0
Heartbeat CPU 4 instructions: 200000001 cycles: 74104701 heartbeat IPC: 2.82064 cumulative IPC: 2.69888 (Simulation time: 30 hr 59 min 38 sec) 
 Total Blocks : 262144 Invalid Blocks : 0
Heartbeat CPU 6 instructions: 200000000 cycles: 74105106 heartbeat IPC: 2.82054 cumulative IPC: 2.69887 (Simulation time: 30 hr 59 min 41 sec) 
 Total Blocks : 262144 Invalid Blocks : 0
Heartbeat CPU 3 instructions: 200000001 cycles: 74105708 heartbeat IPC: 2.82062 cumulative IPC: 2.69885 (Simulation time: 30 hr 59 min 42 sec) 
 Total Blocks : 262144 Invalid Blocks : 0
Heartbeat CPU 5 instructions: 200000001 cycles: 74105836 heartbeat IPC: 2.8206 cumulative IPC: 2.69884 (Simulation time: 30 hr 59 min 42 sec) 
 Total Blocks : 262144 Invalid Blocks : 0
Heartbeat CPU 1 instructions: 200000001 cycles: 74106186 heartbeat IPC: 2.82058 cumulative IPC: 2.69883 (Simulation time: 30 hr 59 min 44 sec) 
 Total Blocks : 262144 Invalid Blocks : 0
Heartbeat CPU 2 instructions: 200000001 cycles: 74106245 heartbeat IPC: 2.82058 cumulative IPC: 2.69883 (Simulation time: 30 hr 59 min 45 sec) 
 Total Blocks : 262144 Invalid Blocks : 0
Heartbeat CPU 0 instructions: 200000001 cycles: 74106910 heartbeat IPC: 2.82058 cumulative IPC: 2.6988 (Simulation time: 30 hr 59 min 47 sec) 
 Total Blocks : 262144 Invalid Blocks : 0

Warmup complete CPU 0 instructions: 200000001 cycles: 74106910 (Simulation time: 30 hr 59 min 47 sec) 
Warmup complete CPU 1 instructions: 200001548 cycles: 74106909 (Simulation time: 30 hr 59 min 47 sec) 
Warmup complete CPU 2 instructions: 200001354 cycles: 74106909 (Simulation time: 30 hr 59 min 47 sec) 
Warmup complete CPU 3 instructions: 200002929 cycles: 74106909 (Simulation time: 30 hr 59 min 47 sec) 
Warmup complete CPU 4 instructions: 200005888 cycles: 74106909 (Simulation time: 30 hr 59 min 47 sec) 
Warmup complete CPU 5 instructions: 200002533 cycles: 74106909 (Simulation time: 30 hr 59 min 47 sec) 
Warmup complete CPU 6 instructions: 200004651 cycles: 74106909 (Simulation time: 30 hr 59 min 47 sec) 
Warmup complete CPU 7 instructions: 200005980 cycles: 74106909 (Simulation time: 30 hr 59 min 47 sec) 

Heartbeat CPU 0 instructions: 210000003 cycles: 112836558 heartbeat IPC: 0.2582 cumulative IPC: 0.2582 (Simulation time: 33 hr 43 min 28 sec) 
 Total Blocks : 262144 Invalid Blocks : 0
Heartbeat CPU 2 instructions: 210000003 cycles: 112938362 heartbeat IPC: 0.257519 cumulative IPC: 0.257488 (Simulation time: 33 hr 43 min 55 sec) 
 Total Blocks : 262144 Invalid Blocks : 0
Heartbeat CPU 6 instructions: 210000003 cycles: 112950026 heartbeat IPC: 0.257434 cumulative IPC: 0.257326 (Simulation time: 33 hr 43 min 57 sec) 
 Total Blocks : 262144 Invalid Blocks : 0
Heartbeat CPU 3 instructions: 210000003 cycles: 112953143 heartbeat IPC: 0.257417 cumulative IPC: 0.25735 (Simulation time: 33 hr 43 min 58 sec) 
 Total Blocks : 262144 Invalid Blocks : 0
Heartbeat CPU 1 instructions: 210000003 cycles: 112992862 heartbeat IPC: 0.257158 cumulative IPC: 0.257123 (Simulation time: 33 hr 44 min 9 sec) 
 Total Blocks : 262144 Invalid Blocks : 0
Heartbeat CPU 4 instructions: 210000003 cycles: 113014374 heartbeat IPC: 0.257006 cumulative IPC: 0.256869 (Simulation time: 33 hr 44 min 15 sec) 
 Total Blocks : 262144 Invalid Blocks : 0
Heartbeat CPU 5 instructions: 210000003 cycles: 113033072 heartbeat IPC: 0.25689 cumulative IPC: 0.256832 (Simulation time: 33 hr 44 min 19 sec) 
 Total Blocks : 262144 Invalid Blocks : 0
Heartbeat CPU 7 instructions: 210000002 cycles: 113309907 heartbeat IPC: 0.255068 cumulative IPC: 0.25493 (Simulation time: 33 hr 45 min 32 sec) 
 Total Blocks : 262144 Invalid Blocks : 0
Heartbeat CPU 3 instructions: 220000000 cycles: 151671795 heartbeat IPC: 0.258273 cumulative IPC: 0.257811 (Simulation time: 36 hr 41 min 44 sec) 
 Total Blocks : 262144 Invalid Blocks : 0
Heartbeat CPU 5 instructions: 220000000 cycles: 151729146 heartbeat IPC: 0.258424 cumulative IPC: 0.257625 (Simulation time: 36 hr 41 min 58 sec) 
 Total Blocks : 262144 Invalid Blocks : 0
Heartbeat CPU 0 instructions: 220000000 cycles: 151796931 heartbeat IPC: 0.256671 cumulative IPC: 0.257433 (Simulation time: 36 hr 42 min 16 sec) 
 Total Blocks : 262144 Invalid Blocks : 0
Heartbeat CPU 2 instructions: 220000000 cycles: 151849607 heartbeat IPC: 0.256995 cumulative IPC: 0.257241 (Simulation time: 36 hr 42 min 32 sec) 
 Total Blocks : 262144 Invalid Blocks : 0
Heartbeat CPU 1 instructions: 220000000 cycles: 151873938 heartbeat IPC: 0.257194 cumulative IPC: 0.257158 (Simulation time: 36 hr 42 min 39 sec) 
 Total Blocks : 262144 Invalid Blocks : 0
Heartbeat CPU 4 instructions: 220000000 cycles: 151913526 heartbeat IPC: 0.257075 cumulative IPC: 0.256972 (Simulation time: 36 hr 42 min 52 sec) 
 Total Blocks : 262144 Invalid Blocks : 0
Heartbeat CPU 6 instructions: 220000000 cycles: 152034102 heartbeat IPC: 0.255859 cumulative IPC: 0.25659 (Simulation time: 36 hr 43 min 23 sec) 
 Total Blocks : 262144 Invalid Blocks : 0
Heartbeat CPU 7 instructions: 220000000 cycles: 152605997 heartbeat IPC: 0.254478 cumulative IPC: 0.254704 (Simulation time: 36 hr 45 min 59 sec) 
 Total Blocks : 262144 Invalid Blocks : 0
Heartbeat CPU 0 instructions: 230000001 cycles: 189761531 heartbeat IPC: 0.263403 cumulative IPC: 0.259393 (Simulation time: 39 hr 43 min 32 sec) 
 Total Blocks : 262144 Invalid Blocks : 0
Heartbeat CPU 3 instructions: 230000001 cycles: 189816083 heartbeat IPC: 0.262162 cumulative IPC: 0.259245 (Simulation time: 39 hr 43 min 46 sec) 
 Total Blocks : 262144 Invalid Blocks : 0
Heartbeat CPU 2 instructions: 230000001 cycles: 189825237 heartbeat IPC: 0.263327 cumulative IPC: 0.259239 (Simulation time: 39 hr 43 min 48 sec) 
 Total Blocks : 262144 Invalid Blocks : 0
Heartbeat CPU 1 instructions: 230000001 cycles: 189865487 heartbeat IPC: 0.263216 cumulative IPC: 0.259147 (Simulation time: 39 hr 43 min 59 sec) 
 Total Blocks : 262144 Invalid Blocks : 0
Heartbeat CPU 5 instructions: 230000001 cycles: 189885000 heartbeat IPC: 0.262083 cumulative IPC: 0.259095 (Simulation time: 39 hr 44 min 5 sec) 
 Total Blocks : 262144 Invalid Blocks : 0
Heartbeat CPU 6 instructions: 230000001 cycles: 190352339 heartbeat IPC: 0.260972 cumulative IPC: 0.258035 (Simulation time: 39 hr 46 min 24 sec) 
 Total Blocks : 262144 Invalid Blocks : 0
Heartbeat CPU 4 instructions: 230000001 cycles: 190447000 heartbeat IPC: 0.259515 cumulative IPC: 0.257814 (Simulation time: 39 hr 46 min 47 sec) 
 Total Blocks : 262144 Invalid Blocks : 0
Heartbeat CPU 7 instructions: 230000001 cycles: 191062604 heartbeat IPC: 0.260033 cumulative IPC: 0.256456 (Simulation time: 39 hr 49 min 34 sec) 
 Total Blocks : 262144 Invalid Blocks : 0
Heartbeat CPU 2 instructions: 240000000 cycles: 228174966 heartbeat IPC: 0.260758 cumulative IPC: 0.259617 (Simulation time: 42 hr 43 min 35 sec) 
 Total Blocks : 262144 Invalid Blocks : 0
Heartbeat CPU 0 instructions: 240000000 cycles: 228271489 heartbeat IPC: 0.259673 cumulative IPC: 0.259463 (Simulation time: 42 hr 44 min 0 sec) 
 Total Blocks : 262144 Invalid Blocks : 0
Heartbeat CPU 3 instructions: 240000000 cycles: 228272025 heartbeat IPC: 0.260038 cumulative IPC: 0.259443 (Simulation time: 42 hr 44 min 1 sec) 
 Total Blocks : 262144 Invalid Blocks : 0
Heartbeat CPU 5 instructions: 240000001 cycles: 228308698 heartbeat IPC: 0.260256 cumulative IPC: 0.259384 (Simulation time: 42 hr 44 min 12 sec) 
 Total Blocks : 262144 Invalid Blocks : 0
Heartbeat CPU 1 instructions: 240000000 cycles: 228350509 heartbeat IPC: 0.259841 cumulative IPC: 0.25932 (Simulation time: 42 hr 44 min 25 sec) 
 Total Blocks : 262144 Invalid Blocks : 0
Heartbeat CPU 6 instructions: 240000000 cycles: 229146383 heartbeat IPC: 0.257771 cumulative IPC: 0.257969 (Simulation time: 42 hr 48 min 18 sec) 
 Total Blocks : 262144 Invalid Blocks : 0
Heartbeat CPU 4 instructions: 240000001 cycles: 229191007 heartbeat IPC: 0.258104 cumulative IPC: 0.257887 (Simulation time: 42 hr 48 min 33 sec) 
 Total Blocks : 262144 Invalid Blocks : 0
Heartbeat CPU 7 instructions: 240000000 cycles: 229751629 heartbeat IPC: 0.258471 cumulative IPC: 0.256957 (Simulation time: 42 hr 51 min 10 sec) 
 Total Blocks : 262144 Invalid Blocks : 0
Heartbeat CPU 0 instructions: 250000003 cycles: 266272366 heartbeat IPC: 0.263152 cumulative IPC: 0.260192 (Simulation time: 45 hr 46 min 14 sec) 
 Total Blocks : 262144 Invalid Blocks : 0
Heartbeat CPU 2 instructions: 250000003 cycles: 266392641 heartbeat IPC: 0.261659 cumulative IPC: 0.260023 (Simulation time: 45 hr 46 min 48 sec) 
 Total Blocks : 262144 Invalid Blocks : 0
Heartbeat CPU 5 instructions: 250000003 cycles: 266681384 heartbeat IPC: 0.260602 cumulative IPC: 0.259627 (Simulation time: 45 hr 48 min 9 sec) 
 Total Blocks : 262144 Invalid Blocks : 0
Heartbeat CPU 1 instructions: 250000003 cycles: 266683500 heartbeat IPC: 0.260872 cumulative IPC: 0.259629 (Simulation time: 45 hr 48 min 9 sec) 
 Total Blocks : 262144 Invalid Blocks : 0
Heartbeat CPU 3 instructions: 250000003 cycles: 266742975 heartbeat IPC: 0.259936 cumulative IPC: 0.259542 (Simulation time: 45 hr 48 min 29 sec) 
 Total Blocks : 262144 Invalid Blocks : 0
Heartbeat CPU 4 instructions: 250000003 cycles: 267422451 heartbeat IPC: 0.261565 cumulative IPC: 0.258614 (Simulation time: 45 hr 51 min 52 sec) 
 Total Blocks : 262144 Invalid Blocks : 0
Heartbeat CPU 6 instructions: 250000000 cycles: 267671379 heartbeat IPC: 0.259572 cumulative IPC: 0.258288 (Simulation time: 45 hr 53 min 8 sec) 
 Total Blocks : 262144 Invalid Blocks : 0
Heartbeat CPU 7 instructions: 250000001 cycles: 268349592 heartbeat IPC: 0.259081 cumulative IPC: 0.257379 (Simulation time: 45 hr 56 min 20 sec) 
 Total Blocks : 262144 Invalid Blocks : 0
Heartbeat CPU 0 instructions: 260000000 cycles: 304610687 heartbeat IPC: 0.260836 cumulative IPC: 0.260299 (Simulation time: 48 hr 53 min 32 sec) 
 Total Blocks : 262144 Invalid Blocks : 0
Heartbeat CPU 2 instructions: 260000000 cycles: 304657423 heartbeat IPC: 0.261337 cumulative IPC: 0.260241 (Simulation time: 48 hr 53 min 46 sec) 
 Total Blocks : 262144 Invalid Blocks : 0
Heartbeat CPU 1 instructions: 260000000 cycles: 304895270 heartbeat IPC: 0.261699 cumulative IPC: 0.259972 (Simulation time: 48 hr 55 min 3 sec) 
 Total Blocks : 262144 Invalid Blocks : 0
Heartbeat CPU 5 instructions: 260000000 cycles: 304968482 heartbeat IPC: 0.261185 cumulative IPC: 0.259885 (Simulation time: 48 hr 55 min 25 sec) 
 Total Blocks : 262144 Invalid Blocks : 0
Heartbeat CPU 3 instructions: 260000000 cycles: 305207741 heartbeat IPC: 0.259978 cumulative IPC: 0.259614 (Simulation time: 48 hr 56 min 34 sec) 
 Total Blocks : 262144 Invalid Blocks : 0
Heartbeat CPU 4 instructions: 260000000 cycles: 305684136 heartbeat IPC: 0.261358 cumulative IPC: 0.259067 (Simulation time: 48 hr 59 min 0 sec) 
 Total Blocks : 262144 Invalid Blocks : 0
Heartbeat CPU 6 instructions: 260000000 cycles: 305922508 heartbeat IPC: 0.26143 cumulative IPC: 0.258806 (Simulation time: 49 hr 0 min 11 sec) 
 Total Blocks : 262144 Invalid Blocks : 0
Heartbeat CPU 7 instructions: 260000000 cycles: 306723945 heartbeat IPC: 0.260591 cumulative IPC: 0.257909 (Simulation time: 49 hr 4 min 8 sec) 
 Total Blocks : 262144 Invalid Blocks : 0
Heartbeat CPU 0 instructions: 270000002 cycles: 341988443 heartbeat IPC: 0.267539 cumulative IPC: 0.26131 (Simulation time: 51 hr 56 min 8 sec) 
 Total Blocks : 262144 Invalid Blocks : 0
Heartbeat CPU 2 instructions: 270000002 cycles: 342124671 heartbeat IPC: 0.2669 cumulative IPC: 0.261172 (Simulation time: 51 hr 56 min 48 sec) 
 Total Blocks : 262144 Invalid Blocks : 0
Heartbeat CPU 1 instructions: 270000002 cycles: 342369465 heartbeat IPC: 0.26685 cumulative IPC: 0.260933 (Simulation time: 51 hr 58 min 0 sec) 
 Total Blocks : 262144 Invalid Blocks : 0
Heartbeat CPU 5 instructions: 270000002 cycles: 342600154 heartbeat IPC: 0.265734 cumulative IPC: 0.260705 (Simulation time: 51 hr 59 min 7 sec) 
 Total Blocks : 262144 Invalid Blocks : 0
Heartbeat CPU 3 instructions: 270000002 cycles: 342703205 heartbeat IPC: 0.266699 cumulative IPC: 0.260603 (Simulation time: 51 hr 59 min 36 sec) 
 Total Blocks : 262144 Invalid Blocks : 0
Heartbeat CPU 4 instructions: 270000002 cycles: 343253193 heartbeat IPC: 0.266177 cumulative IPC: 0.26006 (Simulation time: 52 hr 2 min 13 sec) 
 Total Blocks : 262144 Invalid Blocks : 0
Heartbeat CPU 6 instructions: 270000002 cycles: 343564818 heartbeat IPC: 0.265659 cumulative IPC: 0.259764 (Simulation time: 52 hr 3 min 46 sec) 
 Total Blocks : 262144 Invalid Blocks : 0
Heartbeat CPU 7 instructions: 270000002 cycles: 344373460 heartbeat IPC: 0.265608 cumulative IPC: 0.258981 (Simulation time: 52 hr 7 min 53 sec) 
 Total Blocks : 262144 Invalid Blocks : 0
Heartbeat CPU 2 instructions: 280000000 cycles: 379598582 heartbeat IPC: 0.266852 cumulative IPC: 0.261869 (Simulation time: 54 hr 59 min 23 sec) 
 Total Blocks : 262144 Invalid Blocks : 0
Heartbeat CPU 0 instructions: 280000000 cycles: 379729976 heartbeat IPC: 0.26496 cumulative IPC: 0.26176 (Simulation time: 55 hr 0 min 4 sec) 
 Total Blocks : 262144 Invalid Blocks : 0
Heartbeat CPU 1 instructions: 280000000 cycles: 380070217 heartbeat IPC: 0.265247 cumulative IPC: 0.261464 (Simulation time: 55 hr 1 min 48 sec) 
 Total Blocks : 262144 Invalid Blocks : 0
Heartbeat CPU 3 instructions: 280000000 cycles: 380247315 heartbeat IPC: 0.266353 cumulative IPC: 0.261308 (Simulation time: 55 hr 2 min 41 sec) 
 Total Blocks : 262144 Invalid Blocks : 0
Heartbeat CPU 5 instructions: 280000000 cycles: 380452356 heartbeat IPC: 0.264185 cumulative IPC: 0.261135 (Simulation time: 55 hr 3 min 46 sec) 
 Total Blocks : 262144 Invalid Blocks : 0
Heartbeat CPU 4 instructions: 280000000 cycles: 380981353 heartbeat IPC: 0.265054 cumulative IPC: 0.260674 (Simulation time: 55 hr 6 min 26 sec) 
 Total Blocks : 262144 Invalid Blocks : 0
Heartbeat CPU 6 instructions: 280000000 cycles: 381293194 heartbeat IPC: 0.265052 cumulative IPC: 0.260413 (Simulation time: 55 hr 7 min 59 sec) 
 Total Blocks : 262144 Invalid Blocks : 0
Heartbeat CPU 7 instructions: 280000000 cycles: 382375198 heartbeat IPC: 0.263146 cumulative IPC: 0.259495 (Simulation time: 55 hr 13 min 18 sec) 
 Total Blocks : 262144 Invalid Blocks : 0
Heartbeat CPU 2 instructions: 290000002 cycles: 416844200 heartbeat IPC: 0.268488 cumulative IPC: 0.262588 (Simulation time: 57 hr 58 min 27 sec) 
 Total Blocks : 262144 Invalid Blocks : 0
Heartbeat CPU 0 instructions: 290000002 cycles: 416968864 heartbeat IPC: 0.268537 cumulative IPC: 0.262496 (Simulation time: 57 hr 59 min 7 sec) 
 Total Blocks : 262144 Invalid Blocks : 0
Heartbeat CPU 1 instructions: 290000002 cycles: 417196214 heartbeat IPC: 0.269353 cumulative IPC: 0.262318 (Simulation time: 58 hr 0 min 15 sec) 
 Total Blocks : 262144 Invalid Blocks : 0
Heartbeat CPU 3 instructions: 290000002 cycles: 417209571 heartbeat IPC: 0.270546 cumulative IPC: 0.262304 (Simulation time: 58 hr 0 min 19 sec) 
 Total Blocks : 262144 Invalid Blocks : 0
Heartbeat CPU 5 instructions: 290000001 cycles: 417596839 heartbeat IPC: 0.269219 cumulative IPC: 0.262009 (Simulation time: 58 hr 2 min 4 sec) 
 Total Blocks : 262144 Invalid Blocks : 0
Heartbeat CPU 4 instructions: 290000000 cycles: 418276103 heartbeat IPC: 0.268134 cumulative IPC: 0.261482 (Simulation time: 58 hr 5 min 13 sec) 
 Total Blocks : 262144 Invalid Blocks : 0
Heartbeat CPU 6 instructions: 290000000 cycles: 418741154 heartbeat IPC: 0.267037 cumulative IPC: 0.261133 (Simulation time: 58 hr 7 min 31 sec) 
 Total Blocks : 262144 Invalid Blocks : 0
Heartbeat CPU 7 instructions: 290000000 cycles: 419955925 heartbeat IPC: 0.266094 cumulative IPC: 0.260212 (Simulation time: 58 hr 13 min 56 sec) 
 Total Blocks : 262144 Invalid Blocks : 0
Heartbeat CPU 2 instructions: 300000001 cycles: 454413088 heartbeat IPC: 0.266178 cumulative IPC: 0.262942 (Simulation time: 60 hr 54 min 5 sec) 
 Total Blocks : 262144 Invalid Blocks : 0
Heartbeat CPU 0 instructions: 300000001 cycles: 454628197 heartbeat IPC: 0.265538 cumulative IPC: 0.262797 (Simulation time: 60 hr 54 min 53 sec) 
 Total Blocks : 262144 Invalid Blocks : 0
Heartbeat CPU 1 instructions: 300000001 cycles: 454779442 heartbeat IPC: 0.266076 cumulative IPC: 0.262689 (Simulation time: 60 hr 55 min 27 sec) 
 Total Blocks : 262144 Invalid Blocks : 0
Heartbeat CPU 3 instructions: 300000001 cycles: 454915163 heartbeat IPC: 0.265213 cumulative IPC: 0.262592 (Simulation time: 60 hr 55 min 58 sec) 
 Total Blocks : 262144 Invalid Blocks : 0
Heartbeat CPU 5 instructions: 300000001 cycles: 455366393 heartbeat IPC: 0.264764 cumulative IPC: 0.262282 (Simulation time: 60 hr 57 min 41 sec) 
 Total Blocks : 262144 Invalid Blocks : 0
Heartbeat CPU 4 instructions: 300000001 cycles: 456089640 heartbeat IPC: 0.264456 cumulative IPC: 0.261777 (Simulation time: 61 hr 0 min 25 sec) 
 Total Blocks : 262144 Invalid Blocks : 0
Heartbeat CPU 6 instructions: 300000001 cycles: 456737061 heartbeat IPC: 0.263186 cumulative IPC: 0.261337 (Simulation time: 61 hr 3 min 4 sec) 
 Total Blocks : 262144 Invalid Blocks : 0
Heartbeat CPU 7 instructions: 300000001 cycles: 457941357 heartbeat IPC: 0.263259 cumulative IPC: 0.260513 (Simulation time: 61 hr 9 min 12 sec) 
 Total Blocks : 262144 Invalid Blocks : 0
Heartbeat CPU 2 instructions: 310000003 cycles: 491506633 heartbeat IPC: 0.269589 cumulative IPC: 0.263533 (Simulation time: 63 hr 47 min 6 sec) 
 Total Blocks : 262144 Invalid Blocks : 0
Heartbeat CPU 0 instructions: 310000003 cycles: 491633373 heartbeat IPC: 0.270233 cumulative IPC: 0.263456 (Simulation time: 63 hr 47 min 47 sec) 
 Total Blocks : 262144 Invalid Blocks : 0
Heartbeat CPU 1 instructions: 310000003 cycles: 491973231 heartbeat IPC: 0.268862 cumulative IPC: 0.263238 (Simulation time: 63 hr 49 min 36 sec) 
 Total Blocks : 262144 Invalid Blocks : 0
Heartbeat CPU 3 instructions: 310000003 cycles: 492112094 heartbeat IPC: 0.268839 cumulative IPC: 0.263148 (Simulation time: 63 hr 50 min 19 sec) 
 Total Blocks : 262144 Invalid Blocks : 0
Heartbeat CPU 5 instructions: 310000003 cycles: 492634395 heartbeat IPC: 0.268327 cumulative IPC: 0.26282 (Simulation time: 63 hr 53 min 7 sec) 
 Total Blocks : 262144 Invalid Blocks : 0
Heartbeat CPU 4 instructions: 310000003 cycles: 493664715 heartbeat IPC: 0.266134 cumulative IPC: 0.262167 (Simulation time: 63 hr 58 min 25 sec) 
 Total Blocks : 262144 Invalid Blocks : 0
Heartbeat CPU 6 instructions: 310000003 cycles: 494064419 heartbeat IPC: 0.2679 cumulative IPC: 0.26192 (Simulation time: 64 hr 0 min 37 sec) 
 Total Blocks : 262144 Invalid Blocks : 0
Heartbeat CPU 7 instructions: 310000003 cycles: 495369470 heartbeat IPC: 0.267179 cumulative IPC: 0.261106 (Simulation time: 64 hr 7 min 51 sec) 
 Total Blocks : 262144 Invalid Blocks : 0
Heartbeat CPU 2 instructions: 320000000 cycles: 528700433 heartbeat IPC: 0.268862 cumulative IPC: 0.263969 (Simulation time: 67 hr 8 min 51 sec) 
 Total Blocks : 262144 Invalid Blocks : 0
Heartbeat CPU 0 instructions: 320000003 cycles: 529091954 heartbeat IPC: 0.266962 cumulative IPC: 0.263745 (Simulation time: 67 hr 11 min 0 sec) 
 Total Blocks : 262144 Invalid Blocks : 0
Heartbeat CPU 1 instructions: 320000000 cycles: 529293358 heartbeat IPC: 0.267952 cumulative IPC: 0.263625 (Simulation time: 67 hr 12 min 7 sec) 
 Total Blocks : 262144 Invalid Blocks : 0
Heartbeat CPU 3 instructions: 320000000 cycles: 529858841 heartbeat IPC: 0.264923 cumulative IPC: 0.263295 (Simulation time: 67 hr 15 min 8 sec) 
 Total Blocks : 262144 Invalid Blocks : 0
Heartbeat CPU 5 instructions: 320000000 cycles: 530341104 heartbeat IPC: 0.265205 cumulative IPC: 0.263017 (Simulation time: 67 hr 17 min 45 sec) 
 Total Blocks : 262144 Invalid Blocks : 0
Heartbeat CPU 4 instructions: 320000000 cycles: 531370729 heartbeat IPC: 0.26521 cumulative IPC: 0.262418 (Simulation time: 67 hr 23 min 14 sec) 
 Total Blocks : 262144 Invalid Blocks : 0
Heartbeat CPU 6 instructions: 320000000 cycles: 531473421 heartbeat IPC: 0.267315 cumulative IPC: 0.262361 (Simulation time: 67 hr 23 min 44 sec) 
 Total Blocks : 262144 Invalid Blocks : 0
Heartbeat CPU 7 instructions: 320000000 cycles: 532743978 heartbeat IPC: 0.267562 cumulative IPC: 0.261632 (Simulation time: 67 hr 30 min 48 sec) 
 Total Blocks : 262144 Invalid Blocks : 0
Heartbeat CPU 2 instructions: 330000000 cycles: 565580713 heartbeat IPC: 0.271148 cumulative IPC: 0.264508 (Simulation time: 70 hr 30 min 37 sec) 
 Total Blocks : 262144 Invalid Blocks : 0
Heartbeat CPU 1 instructions: 330000000 cycles: 566099707 heartbeat IPC: 0.271692 cumulative IPC: 0.264228 (Simulation time: 70 hr 33 min 26 sec) 
 Total Blocks : 262144 Invalid Blocks : 0
Heartbeat CPU 0 instructions: 330000000 cycles: 566215958 heartbeat IPC: 0.269367 cumulative IPC: 0.264169 (Simulation time: 70 hr 34 min 2 sec) 
 Total Blocks : 262144 Invalid Blocks : 0
Heartbeat CPU 3 instructions: 330000000 cycles: 566854415 heartbeat IPC: 0.270303 cumulative IPC: 0.263821 (Simulation time: 70 hr 37 min 33 sec) 
 Total Blocks : 262144 Invalid Blocks : 0
Heartbeat CPU 5 instructions: 330000000 cycles: 567378775 heartbeat IPC: 0.269995 cumulative IPC: 0.263541 (Simulation time: 70 hr 40 min 24 sec) 
 Total Blocks : 262144 Invalid Blocks : 0
Heartbeat CPU 4 instructions: 330000000 cycles: 568309622 heartbeat IPC: 0.270717 cumulative IPC: 0.263038 (Simulation time: 70 hr 45 min 36 sec) 
 Total Blocks : 262144 Invalid Blocks : 0
Heartbeat CPU 6 instructions: 330000000 cycles: 568419877 heartbeat IPC: 0.270662 cumulative IPC: 0.262982 (Simulation time: 70 hr 46 min 11 sec) 
 Total Blocks : 262144 Invalid Blocks : 0
Heartbeat CPU 7 instructions: 330000000 cycles: 569437593 heartbeat IPC: 0.272527 cumulative IPC: 0.262439 (Simulation time: 70 hr 51 min 55 sec) 
 Total Blocks : 262144 Invalid Blocks : 0
Heartbeat CPU 2 instructions: 340000000 cycles: 602981417 heartbeat IPC: 0.267375 cumulative IPC: 0.264711 (Simulation time: 74 hr 0 min 37 sec) 
 Total Blocks : 262144 Invalid Blocks : 0
Heartbeat CPU 1 instructions: 340000000 cycles: 603460419 heartbeat IPC: 0.267661 cumulative IPC: 0.264471 (Simulation time: 74 hr 3 min 20 sec) 
 Total Blocks : 262144 Invalid Blocks : 0
Heartbeat CPU 0 instructions: 340000000 cycles: 603846377 heartbeat IPC: 0.265742 cumulative IPC: 0.264281 (Simulation time: 74 hr 5 min 29 sec) 
 Total Blocks : 262144 Invalid Blocks : 0
Heartbeat CPU 3 instructions: 340000000 cycles: 604401171 heartbeat IPC: 0.266335 cumulative IPC: 0.263999 (Simulation time: 74 hr 8 min 30 sec) 
 Total Blocks : 262144 Invalid Blocks : 0
Heartbeat CPU 5 instructions: 340000000 cycles: 605011209 heartbeat IPC: 0.265728 cumulative IPC: 0.263696 (Simulation time: 74 hr 11 min 57 sec) 
 Total Blocks : 262144 Invalid Blocks : 0
Heartbeat CPU 6 instructions: 340000000 cycles: 605767289 heartbeat IPC: 0.267756 cumulative IPC: 0.263317 (Simulation time: 74 hr 16 min 9 sec) 
 Total Blocks : 262144 Invalid Blocks : 0
Heartbeat CPU 4 instructions: 340000000 cycles: 605851924 heartbeat IPC: 0.266366 cumulative IPC: 0.263273 (Simulation time: 74 hr 16 min 38 sec) 
 Total Blocks : 262144 Invalid Blocks : 0
Heartbeat CPU 7 instructions: 340000000 cycles: 606829748 heartbeat IPC: 0.267436 cumulative IPC: 0.26279 (Simulation time: 74 hr 22 min 14 sec) 
 Total Blocks : 262144 Invalid Blocks : 0
Heartbeat CPU 2 instructions: 350000001 cycles: 639538065 heartbeat IPC: 0.273548 cumulative IPC: 0.265282 (Simulation time: 77 hr 26 min 15 sec) 
 Total Blocks : 262144 Invalid Blocks : 0
Heartbeat CPU 1 instructions: 350000001 cycles: 640104964 heartbeat IPC: 0.272892 cumulative IPC: 0.265016 (Simulation time: 77 hr 29 min 22 sec) 
 Total Blocks : 262144 Invalid Blocks : 0
Heartbeat CPU 0 instructions: 350000001 cycles: 640607764 heartbeat IPC: 0.272025 cumulative IPC: 0.264783 (Simulation time: 77 hr 32 min 15 sec) 
 Total Blocks : 262144 Invalid Blocks : 0
Heartbeat CPU 3 instructions: 350000001 cycles: 640907679 heartbeat IPC: 0.273924 cumulative IPC: 0.264638 (Simulation time: 77 hr 33 min 55 sec) 
 Total Blocks : 262144 Invalid Blocks : 0
Heartbeat CPU 5 instructions: 350000001 cycles: 641581505 heartbeat IPC: 0.273446 cumulative IPC: 0.264325 (Simulation time: 77 hr 37 min 41 sec) 
 Total Blocks : 262144 Invalid Blocks : 0
Heartbeat CPU 6 instructions: 350000001 cycles: 642354551 heartbeat IPC: 0.273319 cumulative IPC: 0.263961 (Simulation time: 77 hr 41 min 58 sec) 
 Total Blocks : 262144 Invalid Blocks : 0
Heartbeat CPU 4 instructions: 350000001 cycles: 642451746 heartbeat IPC: 0.273225 cumulative IPC: 0.263914 (Simulation time: 77 hr 42 min 31 sec) 
 Total Blocks : 262144 Invalid Blocks : 0
Heartbeat CPU 7 instructions: 350000001 cycles: 643510544 heartbeat IPC: 0.272622 cumulative IPC: 0.263423 (Simulation time: 77 hr 48 min 33 sec) 
 Total Blocks : 262144 Invalid Blocks : 0
Heartbeat CPU 2 instructions: 360000001 cycles: 676633122 heartbeat IPC: 0.269578 cumulative IPC: 0.265546 (Simulation time: 80 hr 57 min 52 sec) 
 Total Blocks : 262144 Invalid Blocks : 0
Heartbeat CPU 1 instructions: 360000001 cycles: 677256959 heartbeat IPC: 0.269165 cumulative IPC: 0.265271 (Simulation time: 81 hr 1 min 32 sec) 
 Total Blocks : 262144 Invalid Blocks : 0
Heartbeat CPU 0 instructions: 360000001 cycles: 678067948 heartbeat IPC: 0.26695 cumulative IPC: 0.264918 (Simulation time: 81 hr 6 min 11 sec) 
 Total Blocks : 262144 Invalid Blocks : 0
Heartbeat CPU 3 instructions: 360000001 cycles: 678077897 heartbeat IPC: 0.269033 cumulative IPC: 0.264909 (Simulation time: 81 hr 6 min 14 sec) 
 Total Blocks : 262144 Invalid Blocks : 0
Heartbeat CPU 5 instructions: 360000001 cycles: 678765910 heartbeat IPC: 0.26893 cumulative IPC: 0.264608 (Simulation time: 81 hr 10 min 3 sec) 
 Total Blocks : 262144 Invalid Blocks : 0
Heartbeat CPU 6 instructions: 360000001 cycles: 679352222 heartbeat IPC: 0.270287 cumulative IPC: 0.264348 (Simulation time: 81 hr 13 min 25 sec) 
 Total Blocks : 262144 Invalid Blocks : 0
Heartbeat CPU 4 instructions: 360000001 cycles: 679596774 heartbeat IPC: 0.269215 cumulative IPC: 0.264239 (Simulation time: 81 hr 14 min 51 sec) 
 Total Blocks : 262144 Invalid Blocks : 0
Heartbeat CPU 7 instructions: 360000001 cycles: 680625221 heartbeat IPC: 0.269435 cumulative IPC: 0.263791 (Simulation time: 81 hr 20 min 50 sec) 
 Total Blocks : 262144 Invalid Blocks : 0
Heartbeat CPU 2 instructions: 370000001 cycles: 713717446 heartbeat IPC: 0.269656 cumulative IPC: 0.265785 (Simulation time: 84 hr 33 min 38 sec) 
 Total Blocks : 262144 Invalid Blocks : 0
Heartbeat CPU 1 instructions: 370000001 cycles: 714573704 heartbeat IPC: 0.267976 cumulative IPC: 0.265429 (Simulation time: 84 hr 38 min 53 sec) 
 Total Blocks : 262144 Invalid Blocks : 0
Heartbeat CPU 0 instructions: 370000001 cycles: 715286508 heartbeat IPC: 0.268683 cumulative IPC: 0.265136 (Simulation time: 84 hr 43 min 14 sec) 
 Total Blocks : 262144 Invalid Blocks : 0
Heartbeat CPU 3 instructions: 370000001 cycles: 715434382 heartbeat IPC: 0.267691 cumulative IPC: 0.265071 (Simulation time: 84 hr 44 min 10 sec) 
 Total Blocks : 262144 Invalid Blocks : 0
Heartbeat CPU 5 instructions: 370000001 cycles: 715936951 heartbeat IPC: 0.269027 cumulative IPC: 0.264864 (Simulation time: 84 hr 47 min 30 sec) 
 Total Blocks : 262144 Invalid Blocks : 0
Heartbeat CPU 4 instructions: 370000001 cycles: 716513700 heartbeat IPC: 0.270878 cumulative IPC: 0.264621 (Simulation time: 84 hr 50 min 52 sec) 
 Total Blocks : 262144 Invalid Blocks : 0
Heartbeat CPU 6 instructions: 370000001 cycles: 716615120 heartbeat IPC: 0.268363 cumulative IPC: 0.264581 (Simulation time: 84 hr 51 min 28 sec) 
 Total Blocks : 262144 Invalid Blocks : 0
Heartbeat CPU 7 instructions: 370000001 cycles: 717693616 heartbeat IPC: 0.269772 cumulative IPC: 0.264135 (Simulation time: 84 hr 57 min 47 sec) 
 Total Blocks : 262144 Invalid Blocks : 0
Heartbeat CPU 2 instructions: 380000003 cycles: 750366512 heartbeat IPC: 0.272858 cumulative IPC: 0.266168 (Simulation time: 88 hr 9 min 24 sec) 
 Total Blocks : 262144 Invalid Blocks : 0
Heartbeat CPU 1 instructions: 380000003 cycles: 751168017 heartbeat IPC: 0.273267 cumulative IPC: 0.265853 (Simulation time: 88 hr 14 min 8 sec) 
 Total Blocks : 262144 Invalid Blocks : 0
Heartbeat CPU 0 instructions: 380000003 cycles: 751899870 heartbeat IPC: 0.273124 cumulative IPC: 0.265568 (Simulation time: 88 hr 18 min 28 sec) 
 Total Blocks : 262144 Invalid Blocks : 0
Heartbeat CPU 3 instructions: 380000003 cycles: 752130200 heartbeat IPC: 0.272511 cumulative IPC: 0.265473 (Simulation time: 88 hr 19 min 45 sec) 
 Total Blocks : 262144 Invalid Blocks : 0
Heartbeat CPU 5 instructions: 380000003 cycles: 752502262 heartbeat IPC: 0.273483 cumulative IPC: 0.265328 (Simulation time: 88 hr 21 min 58 sec) 
 Total Blocks : 262144 Invalid Blocks : 0
Heartbeat CPU 4 instructions: 380000003 cycles: 753131118 heartbeat IPC: 0.273094 cumulative IPC: 0.265078 (Simulation time: 88 hr 25 min 42 sec) 
 Total Blocks : 262144 Invalid Blocks : 0
Heartbeat CPU 6 instructions: 380000003 cycles: 753340586 heartbeat IPC: 0.272291 cumulative IPC: 0.264998 (Simulation time: 88 hr 26 min 52 sec) 
 Total Blocks : 262144 Invalid Blocks : 0
Heartbeat CPU 7 instructions: 380000003 cycles: 754045967 heartbeat IPC: 0.275085 cumulative IPC: 0.264721 (Simulation time: 88 hr 31 min 2 sec) 
 Total Blocks : 262144 Invalid Blocks : 0
Heartbeat CPU 2 instructions: 390000003 cycles: 787962856 heartbeat IPC: 0.265983 cumulative IPC: 0.266158 (Simulation time: 91 hr 54 min 13 sec) 
 Total Blocks : 262144 Invalid Blocks : 0
Heartbeat CPU 1 instructions: 390000003 cycles: 788313416 heartbeat IPC: 0.269212 cumulative IPC: 0.266027 (Simulation time: 91 hr 56 min 14 sec) 
 Total Blocks : 262144 Invalid Blocks : 0
Heartbeat CPU 0 instructions: 390000003 cycles: 789385015 heartbeat IPC: 0.266772 cumulative IPC: 0.265631 (Simulation time: 92 hr 2 min 38 sec) 
 Total Blocks : 262144 Invalid Blocks : 0
Heartbeat CPU 3 instructions: 390000003 cycles: 789635037 heartbeat IPC: 0.266632 cumulative IPC: 0.265534 (Simulation time: 92 hr 4 min 2 sec) 
 Total Blocks : 262144 Invalid Blocks : 0
Heartbeat CPU 5 instructions: 390000003 cycles: 789687365 heartbeat IPC: 0.268925 cumulative IPC: 0.265515 (Simulation time: 92 hr 4 min 20 sec) 
 Total Blocks : 262144 Invalid Blocks : 0
Heartbeat CPU 4 instructions: 390000003 cycles: 790417665 heartbeat IPC: 0.268193 cumulative IPC: 0.26524 (Simulation time: 92 hr 8 min 40 sec) 
 Total Blocks : 262144 Invalid Blocks : 0
Heartbeat CPU 6 instructions: 390000003 cycles: 790789212 heartbeat IPC: 0.267033 cumulative IPC: 0.265104 (Simulation time: 92 hr 10 min 54 sec) 
 Total Blocks : 262144 Invalid Blocks : 0
Heartbeat CPU 7 instructions: 390000003 cycles: 791390263 heartbeat IPC: 0.267779 cumulative IPC: 0.26488 (Simulation time: 92 hr 14 min 29 sec) 
 Total Blocks : 262144 Invalid Blocks : 0
Heartbeat CPU 1 instructions: 400000000 cycles: 824768276 heartbeat IPC: 0.274312 cumulative IPC: 0.26643 (Simulation time: 94 hr 43 min 7 sec) 
 Total Blocks : 262144 Invalid Blocks : 0
Finished CPU 1 instructions: 200000002 cycles: 750670551 cumulative IPC: 0.266428 (Simulation time: 94 hr 43 min 10 sec) 
Heartbeat CPU 2 instructions: 400000000 cycles: 825057221 heartbeat IPC: 0.269583 cumulative IPC: 0.266327 (Simulation time: 94 hr 44 min 30 sec) 
 Total Blocks : 262144 Invalid Blocks : 0
Finished CPU 2 instructions: 200000002 cycles: 750957992 cumulative IPC: 0.266326 (Simulation time: 94 hr 44 min 31 sec) 
Heartbeat CPU 0 instructions: 400000000 cycles: 825910223 heartbeat IPC: 0.273783 cumulative IPC: 0.266027 (Simulation time: 94 hr 48 min 15 sec) 
 Total Blocks : 262144 Invalid Blocks : 0
Finished CPU 0 instructions: 200000003 cycles: 751803315 cumulative IPC: 0.266027 (Simulation time: 94 hr 48 min 15 sec) 
Heartbeat CPU 3 instructions: 400000000 cycles: 826113120 heartbeat IPC: 0.274137 cumulative IPC: 0.265951 (Simulation time: 94 hr 49 min 8 sec) 
 Total Blocks : 262144 Invalid Blocks : 0
Finished CPU 3 instructions: 200000002 cycles: 752015887 cumulative IPC: 0.265952 (Simulation time: 94 hr 49 min 10 sec) 
Heartbeat CPU 5 instructions: 400000000 cycles: 826233828 heartbeat IPC: 0.273624 cumulative IPC: 0.265909 (Simulation time: 94 hr 49 min 40 sec) 
 Total Blocks : 262144 Invalid Blocks : 0
Finished CPU 5 instructions: 200000002 cycles: 752138824 cumulative IPC: 0.265908 (Simulation time: 94 hr 49 min 42 sec) 
Heartbeat CPU 4 instructions: 400000000 cycles: 827222090 heartbeat IPC: 0.271706 cumulative IPC: 0.265556 (Simulation time: 94 hr 54 min 4 sec) 
 Total Blocks : 262144 Invalid Blocks : 0
Finished CPU 4 instructions: 200000002 cycles: 753133329 cumulative IPC: 0.265557 (Simulation time: 94 hr 54 min 8 sec) 
Heartbeat CPU 6 instructions: 400000000 cycles: 827304681 heartbeat IPC: 0.273856 cumulative IPC: 0.265528 (Simulation time: 94 hr 54 min 25 sec) 
 Total Blocks : 262144 Invalid Blocks : 0
Finished CPU 6 instructions: 200000001 cycles: 753210454 cumulative IPC: 0.26553 (Simulation time: 94 hr 54 min 28 sec) 
Heartbeat CPU 7 instructions: 400000000 cycles: 828087260 heartbeat IPC: 0.272502 cumulative IPC: 0.265251 (Simulation time: 94 hr 57 min 53 sec) 
 Total Blocks : 262144 Invalid Blocks : 0
Finished CPU 7 instructions: 200000002 cycles: 754002348 cumulative IPC: 0.265251 (Simulation time: 94 hr 57 min 57 sec) 

CPU 0 Branch Prediction Accuracy: 99.5866% MPKI: 0.0446071 Average ROB Occupancy at Mispredict: 194.305

CPU 1 Branch Prediction Accuracy: 99.5868% MPKI: 0.0445761 Average ROB Occupancy at Mispredict: 194.377

CPU 2 Branch Prediction Accuracy: 99.5867% MPKI: 0.0445898 Average ROB Occupancy at Mispredict: 194.431

CPU 3 Branch Prediction Accuracy: 99.5865% MPKI: 0.0446091 Average ROB Occupancy at Mispredict: 194.492

CPU 4 Branch Prediction Accuracy: 99.5865% MPKI: 0.0446171 Average ROB Occupancy at Mispredict: 194.251

CPU 5 Branch Prediction Accuracy: 99.5866% MPKI: 0.0445995 Average ROB Occupancy at Mispredict: 194.245

CPU 6 Branch Prediction Accuracy: 99.5864% MPKI: 0.0446217 Average ROB Occupancy at Mispredict: 194.414

CPU 7 Branch Prediction Accuracy: 99.5863% MPKI: 0.0446387 Average ROB Occupancy at Mispredict: 194.424

ChampSim completed all CPUs

Total Simulation Statistics (not including warmup)

CPU 0 cumulative IPC: 0.266041 instructions: 200595893 cycles: 754002347
ITLB TOTAL     ACCESS: 33189067  HIT: 33189067  MISS:     0  HIT %:   100  MISS %:     0  AVERAGE MISS PENALTY: 0
ITLB LOAD      ACCESS: 33189067  HIT: 33189067  MISS:     0  HIT %:   100  MISS %:     0  AVERAGE MISS PENALTY: 0
ITLB RFO       ACCESS:     0  HIT:     0  MISS:     0  HIT %:     0  MISS %:     0  AVERAGE MISS PENALTY: 0
ITLB PREFETCH  ACCESS:     0  HIT:     0  MISS:     0  HIT %:     0  MISS %:     0  AVERAGE MISS PENALTY: 0
ITLB WRITEBACK ACCESS:     0  HIT:     0  MISS:     0  HIT %:     0  MISS %:     0  AVERAGE MISS PENALTY: 0

DTLB TOTAL     ACCESS: 32681316  HIT: 32554833  MISS: 126483  HIT %: 99.613  MISS %: 0.387019  AVERAGE MISS PENALTY: 87.8022
DTLB LOAD      ACCESS: 18473181  HIT: 18456019  MISS: 17162  HIT %: 99.9071  MISS %: 0.0929022  AVERAGE MISS PENALTY: 109.006
DTLB RFO       ACCESS: 14208135  HIT: 14098814  MISS: 109321  HIT %: 99.2306  MISS %: 0.769425  AVERAGE MISS PENALTY: 84.4735
DTLB PREFETCH  ACCESS:     0  HIT:     0  MISS:     0  HIT %:     0  MISS %:     0  AVERAGE MISS PENALTY: 0
DTLB WRITEBACK ACCESS:     0  HIT:     0  MISS:     0  HIT %:     0  MISS %:     0  AVERAGE MISS PENALTY: 0

STLB TOTAL     ACCESS: 126483  HIT: 57855  MISS: 68628  HIT %: 45.7413  MISS %: 54.2587  AVERAGE MISS PENALTY: 100
STLB LOAD      ACCESS: 17162  HIT:     0  MISS: 17162  HIT %:     0  MISS %:   100  AVERAGE MISS PENALTY: 100
STLB RFO       ACCESS: 109321  HIT: 57855  MISS: 51466  HIT %: 52.9221  MISS %: 47.0779  AVERAGE MISS PENALTY: 100
STLB PREFETCH  ACCESS:     0  HIT:     0  MISS:     0  HIT %:     0  MISS %:     0  AVERAGE MISS PENALTY: 0
STLB WRITEBACK ACCESS:     0  HIT:     0  MISS:     0  HIT %:     0  MISS %:     0  AVERAGE MISS PENALTY: 0

L1D TOTAL     ACCESS: 52247834  HIT: 45000373  MISS: 7247461  HIT %: 86.1287  MISS %: 13.8713  AVERAGE MISS PENALTY: 2.26854e+07
L1D LOAD      ACCESS: 16852367  HIT: 16323834  MISS: 528533  HIT %: 96.8637  MISS %: 3.13625  AVERAGE MISS PENALTY: 3.11055e+08
L1D RFO       ACCESS: 28416785  HIT: 22269570  MISS: 6147215  HIT %: 78.3677  MISS %: 21.6323  AVERAGE MISS PENALTY: 1307.64
L1D PREFETCH  ACCESS: 6978682  HIT: 6406969  MISS: 571713  HIT %: 91.8077  MISS %: 8.19228  AVERAGE MISS PENALTY: 926.918
L1D WRITEBACK ACCESS:     0  HIT:     0  MISS:     0  HIT %:     0  MISS %:     0  AVERAGE MISS PENALTY: 0

L1I TOTAL     ACCESS: 43987379  HIT: 43987379  MISS:     0  HIT %:   100  MISS %:     0  AVERAGE MISS PENALTY: 0
L1I LOAD      ACCESS: 43987379  HIT: 43987379  MISS:     0  HIT %:   100  MISS %:     0  AVERAGE MISS PENALTY: 0
L1I RFO       ACCESS:     0  HIT:     0  MISS:     0  HIT %:     0  MISS %:     0  AVERAGE MISS PENALTY: 0
L1I PREFETCH  ACCESS:     0  HIT:     0  MISS:     0  HIT %:     0  MISS %:     0  AVERAGE MISS PENALTY: 0
L1I WRITEBACK ACCESS:     0  HIT:     0  MISS:     0  HIT %:     0  MISS %:     0  AVERAGE MISS PENALTY: 0

L2C TOTAL     ACCESS: 13764300  HIT: 8767671  MISS: 4996629  HIT %: 63.6986  MISS %: 36.3014  AVERAGE MISS PENALTY: 3.63762e+07
L2C LOAD      ACCESS: 523576  HIT: 57858  MISS: 465718  HIT %: 11.0505  MISS %: 88.9495  AVERAGE MISS PENALTY: 3.90256e+08
L2C RFO       ACCESS: 6147216  HIT: 2256734  MISS: 3890482  HIT %: 36.7115  MISS %: 63.2885  AVERAGE MISS PENALTY: 2041.1
L2C PREFETCH  ACCESS: 946293  HIT: 313545  MISS: 632748  HIT %: 33.134  MISS %: 66.866  AVERAGE MISS PENALTY: 1647.6
L2C WRITEBACK ACCESS: 6147215  HIT: 6139534  MISS:  7681  HIT %: 99.875  MISS %: 0.124951  AVERAGE MISS PENALTY: 0


LLC0 TOTAL     ACCESS: 1109521  HIT: 454713  MISS: 654808  HIT %: 40.9828  MISS %: 59.0172  AVERAGE MISS PENALTY: 1899.91
LLC0 LOAD      ACCESS: 20430  HIT:     0  MISS: 20430  HIT %:     0  MISS %:   100  AVERAGE MISS PENALTY: 1945.61
LLC0 RFO       ACCESS: 486236  HIT: 72265  MISS: 413971  HIT %: 14.8621  MISS %: 85.1379  AVERAGE MISS PENALTY: 2329.49
LLC0 PREFETCH  ACCESS: 116782  HIT:     0  MISS: 116782  HIT %:     0  MISS %:   100  AVERAGE MISS PENALTY: 2054.98
LLC0 WRITEBACK ACCESS: 486073  HIT: 382448  MISS: 103625  HIT %: 78.6812  MISS %: 21.3188  AVERAGE MISS PENALTY: 0

LLC1 TOTAL     ACCESS: 1109182  HIT: 453978  MISS: 655204  HIT %: 40.9291  MISS %: 59.0709  AVERAGE MISS PENALTY: 2011.11
LLC1 LOAD      ACCESS: 12823  HIT:     0  MISS: 12823  HIT %:     0  MISS %:   100  AVERAGE MISS PENALTY: 1906.89
LLC1 RFO       ACCESS: 486054  HIT: 72108  MISS: 413946  HIT %: 14.8354  MISS %: 85.1646  AVERAGE MISS PENALTY: 2507.88
LLC1 PREFETCH  ACCESS: 124400  HIT:     0  MISS: 124400  HIT %:     0  MISS %:   100  AVERAGE MISS PENALTY: 2050.71
LLC1 WRITEBACK ACCESS: 485905  HIT: 381870  MISS: 104035  HIT %: 78.5894  MISS %: 21.4106  AVERAGE MISS PENALTY: 0

LLC2 TOTAL     ACCESS: 1109573  HIT: 454553  MISS: 655020  HIT %: 40.9665  MISS %: 59.0335  AVERAGE MISS PENALTY: 1882.95
LLC2 LOAD      ACCESS:  7432  HIT:     0  MISS:  7432  HIT %:     0  MISS %:   100  AVERAGE MISS PENALTY: 1887.17
LLC2 RFO       ACCESS: 486250  HIT: 72213  MISS: 414037  HIT %: 14.851  MISS %: 85.149  AVERAGE MISS PENALTY: 2283.48
LLC2 PREFETCH  ACCESS: 129792  HIT:     0  MISS: 129792  HIT %:     0  MISS %:   100  AVERAGE MISS PENALTY: 2110.32
LLC2 WRITEBACK ACCESS: 486099  HIT: 382340  MISS: 103759  HIT %: 78.6548  MISS %: 21.3452  AVERAGE MISS PENALTY: 0

LLC3 TOTAL     ACCESS: 1109740  HIT: 454772  MISS: 654968  HIT %: 40.98  MISS %: 59.02  AVERAGE MISS PENALTY: 1881.23
LLC3 LOAD      ACCESS:  7431  HIT:     0  MISS:  7431  HIT %:     0  MISS %:   100  AVERAGE MISS PENALTY: 1921.13
LLC3 RFO       ACCESS: 486331  HIT: 72366  MISS: 413965  HIT %: 14.88  MISS %: 85.12  AVERAGE MISS PENALTY: 2284.15
LLC3 PREFETCH  ACCESS: 129793  HIT:     0  MISS: 129793  HIT %:     0  MISS %:   100  AVERAGE MISS PENALTY: 2098.07
LLC3 WRITEBACK ACCESS: 486185  HIT: 382406  MISS: 103779  HIT %: 78.6544  MISS %: 21.3456  AVERAGE MISS PENALTY: 0

LLC4 TOTAL     ACCESS: 1109546  HIT: 454360  MISS: 655186  HIT %: 40.9501  MISS %: 59.0499  AVERAGE MISS PENALTY: 1906.87
LLC4 LOAD      ACCESS:  5111  HIT:     0  MISS:  5111  HIT %:     0  MISS %:   100  AVERAGE MISS PENALTY: 1904.12
LLC4 RFO       ACCESS: 486161  HIT: 72156  MISS: 414005  HIT %: 14.842  MISS %: 85.158  AVERAGE MISS PENALTY: 2340.05
LLC4 PREFETCH  ACCESS: 132263  HIT:    82  MISS: 132181  HIT %: 0.0619977  MISS %: 99.938  AVERAGE MISS PENALTY: 2048.93
LLC4 WRITEBACK ACCESS: 486011  HIT: 382122  MISS: 103889  HIT %: 78.6241  MISS %: 21.3759  AVERAGE MISS PENALTY: 0

LLC5 TOTAL     ACCESS: 1109940  HIT: 454979  MISS: 654961  HIT %: 40.9913  MISS %: 59.0087  AVERAGE MISS PENALTY: 1903.32
LLC5 LOAD      ACCESS:  5473  HIT:     0  MISS:  5473  HIT %:     0  MISS %:   100  AVERAGE MISS PENALTY: 1877.98
LLC5 RFO       ACCESS: 486360  HIT: 72365  MISS: 413995  HIT %: 14.8789  MISS %: 85.1211  AVERAGE MISS PENALTY: 2333.85
LLC5 PREFETCH  ACCESS: 131897  HIT:    69  MISS: 131828  HIT %: 0.0523135  MISS %: 99.9477  AVERAGE MISS PENALTY: 2049.04
LLC5 WRITEBACK ACCESS: 486210  HIT: 382545  MISS: 103665  HIT %: 78.679  MISS %: 21.321  AVERAGE MISS PENALTY: 0

LLC6 TOTAL     ACCESS: 1109474  HIT: 454896  MISS: 654578  HIT %: 41.0011  MISS %: 58.9989  AVERAGE MISS PENALTY: 1895.68
LLC6 LOAD      ACCESS:  4849  HIT:     0  MISS:  4849  HIT %:     0  MISS %:   100  AVERAGE MISS PENALTY: 1986.45
LLC6 RFO       ACCESS: 486103  HIT: 72203  MISS: 413900  HIT %: 14.8534  MISS %: 85.1466  AVERAGE MISS PENALTY: 2294.79
LLC6 PREFETCH  ACCESS: 132572  HIT:   112  MISS: 132460  HIT %: 0.0844824  MISS %: 99.9155  AVERAGE MISS PENALTY: 2124.57
LLC6 WRITEBACK ACCESS: 485950  HIT: 382581  MISS: 103369  HIT %: 78.7285  MISS %: 21.2715  AVERAGE MISS PENALTY: 0

LLC7 TOTAL     ACCESS: 1109697  HIT: 454535  MISS: 655162  HIT %: 40.9603  MISS %: 59.0397  AVERAGE MISS PENALTY: 1885.03
LLC7 LOAD      ACCESS:  4530  HIT:     0  MISS:  4530  HIT %:     0  MISS %:   100  AVERAGE MISS PENALTY: 2024.01
LLC7 RFO       ACCESS: 486227  HIT: 72269  MISS: 413958  HIT %: 14.8632  MISS %: 85.1368  AVERAGE MISS PENALTY: 2284.75
LLC7 PREFETCH  ACCESS: 132888  HIT:   119  MISS: 132769  HIT %: 0.0895491  MISS %: 99.9105  AVERAGE MISS PENALTY: 2109.24
LLC7 WRITEBACK ACCESS: 486052  HIT: 382147  MISS: 103905  HIT %: 78.6227  MISS %: 21.3773  AVERAGE MISS PENALTY: 0

Total Rob stall cycles : 	700727976
Total Load Rob Stall cycles : 	646427728
Average Rob Stall cycles : 	 56
Average Load Rob Stall cycles : 	 440

CPU 1 cumulative IPC: 0.266433 instructions: 200890992 cycles: 754002348
ITLB TOTAL     ACCESS: 33240185  HIT: 33240185  MISS:     0  HIT %:   100  MISS %:     0  AVERAGE MISS PENALTY: 0
ITLB LOAD      ACCESS: 33240185  HIT: 33240185  MISS:     0  HIT %:   100  MISS %:     0  AVERAGE MISS PENALTY: 0
ITLB RFO       ACCESS:     0  HIT:     0  MISS:     0  HIT %:     0  MISS %:     0  AVERAGE MISS PENALTY: 0
ITLB PREFETCH  ACCESS:     0  HIT:     0  MISS:     0  HIT %:     0  MISS %:     0  AVERAGE MISS PENALTY: 0
ITLB WRITEBACK ACCESS:     0  HIT:     0  MISS:     0  HIT %:     0  MISS %:     0  AVERAGE MISS PENALTY: 0

DTLB TOTAL     ACCESS: 32730689  HIT: 32604026  MISS: 126663  HIT %: 99.613  MISS %: 0.386985  AVERAGE MISS PENALTY: 87.7266
DTLB LOAD      ACCESS: 18502276  HIT: 18485089  MISS: 17187  HIT %: 99.9071  MISS %: 0.0928913  AVERAGE MISS PENALTY: 109.011
DTLB RFO       ACCESS: 14228413  HIT: 14118937  MISS: 109476  HIT %: 99.2306  MISS %: 0.769418  AVERAGE MISS PENALTY: 84.3851
DTLB PREFETCH  ACCESS:     0  HIT:     0  MISS:     0  HIT %:     0  MISS %:     0  AVERAGE MISS PENALTY: 0
DTLB WRITEBACK ACCESS:     0  HIT:     0  MISS:     0  HIT %:     0  MISS %:     0  AVERAGE MISS PENALTY: 0

STLB TOTAL     ACCESS: 126663  HIT: 57937  MISS: 68726  HIT %: 45.7411  MISS %: 54.2589  AVERAGE MISS PENALTY: 100
STLB LOAD      ACCESS: 17187  HIT:     0  MISS: 17187  HIT %:     0  MISS %:   100  AVERAGE MISS PENALTY: 100
STLB RFO       ACCESS: 109476  HIT: 57937  MISS: 51539  HIT %: 52.9221  MISS %: 47.0779  AVERAGE MISS PENALTY: 100
STLB PREFETCH  ACCESS:     0  HIT:     0  MISS:     0  HIT %:     0  MISS %:     0  AVERAGE MISS PENALTY: 0
STLB WRITEBACK ACCESS:     0  HIT:     0  MISS:     0  HIT %:     0  MISS %:     0  AVERAGE MISS PENALTY: 0

L1D TOTAL     ACCESS: 52393640  HIT: 45135896  MISS: 7257744  HIT %: 86.1477  MISS %: 13.8523  AVERAGE MISS PENALTY: 2.27354e+07
L1D LOAD      ACCESS: 16905302  HIT: 16377122  MISS: 528180  HIT %: 96.8757  MISS %: 3.12435  AVERAGE MISS PENALTY: 3.12392e+08
L1D RFO       ACCESS: 28474752  HIT: 22318843  MISS: 6155909  HIT %: 78.3812  MISS %: 21.6188  AVERAGE MISS PENALTY: 1337.14
L1D PREFETCH  ACCESS: 7013586  HIT: 6439931  MISS: 573655  HIT %: 91.8208  MISS %: 8.1792  AVERAGE MISS PENALTY: 929.354
L1D WRITEBACK ACCESS:     0  HIT:     0  MISS:     0  HIT %:     0  MISS %:     0  AVERAGE MISS PENALTY: 0

L1I TOTAL     ACCESS: 44055567  HIT: 44055567  MISS:     0  HIT %:   100  MISS %:     0  AVERAGE MISS PENALTY: 0
L1I LOAD      ACCESS: 44055567  HIT: 44055567  MISS:     0  HIT %:   100  MISS %:     0  AVERAGE MISS PENALTY: 0
L1I RFO       ACCESS:     0  HIT:     0  MISS:     0  HIT %:     0  MISS %:     0  AVERAGE MISS PENALTY: 0
L1I PREFETCH  ACCESS:     0  HIT:     0  MISS:     0  HIT %:     0  MISS %:     0  AVERAGE MISS PENALTY: 0
L1I WRITEBACK ACCESS:     0  HIT:     0  MISS:     0  HIT %:     0  MISS %:     0  AVERAGE MISS PENALTY: 0

L2C TOTAL     ACCESS: 13780691  HIT: 8734833  MISS: 5045858  HIT %: 63.3846  MISS %: 36.6154  AVERAGE MISS PENALTY: 3.61637e+07
L2C LOAD      ACCESS: 523349  HIT: 56812  MISS: 466537  HIT %: 10.8555  MISS %: 89.1445  AVERAGE MISS PENALTY: 3.91111e+08
L2C RFO       ACCESS: 6155908  HIT: 2278598  MISS: 3877310  HIT %: 37.0148  MISS %: 62.9852  AVERAGE MISS PENALTY: 2019.79
L2C PREFETCH  ACCESS: 945525  HIT: 311968  MISS: 633557  HIT %: 32.9942  MISS %: 67.0058  AVERAGE MISS PENALTY: 1650.2
L2C WRITEBACK ACCESS: 6155909  HIT: 6087455  MISS: 68454  HIT %: 98.888  MISS %: 1.112  AVERAGE MISS PENALTY: 0


LLC0 TOTAL     ACCESS: 1106336  HIT: 450513  MISS: 655823  HIT %: 40.7212  MISS %: 59.2788  AVERAGE MISS PENALTY: 1888.4
LLC0 LOAD      ACCESS: 20369  HIT:     0  MISS: 20369  HIT %:     0  MISS %:   100  AVERAGE MISS PENALTY: 1930.23
LLC0 RFO       ACCESS: 484553  HIT: 69881  MISS: 414672  HIT %: 14.4217  MISS %: 85.5783  AVERAGE MISS PENALTY: 2309.92
LLC0 PREFETCH  ACCESS: 117038  HIT:     0  MISS: 117038  HIT %:     0  MISS %:   100  AVERAGE MISS PENALTY: 2061.55
LLC0 WRITEBACK ACCESS: 484376  HIT: 380632  MISS: 103744  HIT %: 78.5819  MISS %: 21.4181  AVERAGE MISS PENALTY: 0

LLC1 TOTAL     ACCESS: 1106299  HIT: 450656  MISS: 655643  HIT %: 40.7355  MISS %: 59.2645  AVERAGE MISS PENALTY: 1889.61
LLC1 LOAD      ACCESS: 12816  HIT:     0  MISS: 12816  HIT %:     0  MISS %:   100  AVERAGE MISS PENALTY: 1925.94
LLC1 RFO       ACCESS: 484521  HIT: 69954  MISS: 414567  HIT %: 14.4378  MISS %: 85.5622  AVERAGE MISS PENALTY: 2311.92
LLC1 PREFETCH  ACCESS: 124602  HIT:     0  MISS: 124602  HIT %:     0  MISS %:   100  AVERAGE MISS PENALTY: 2052.76
LLC1 WRITEBACK ACCESS: 484360  HIT: 380702  MISS: 103658  HIT %: 78.599  MISS %: 21.401  AVERAGE MISS PENALTY: 0

LLC2 TOTAL     ACCESS: 1106279  HIT: 450962  MISS: 655317  HIT %: 40.7639  MISS %: 59.2361  AVERAGE MISS PENALTY: 1877.17
LLC2 LOAD      ACCESS:  7391  HIT:     0  MISS:  7391  HIT %:     0  MISS %:   100  AVERAGE MISS PENALTY: 1854.85
LLC2 RFO       ACCESS: 484512  HIT: 70005  MISS: 414507  HIT %: 14.4486  MISS %: 85.5514  AVERAGE MISS PENALTY: 2269.33
LLC2 PREFETCH  ACCESS: 130029  HIT:     1  MISS: 130028  HIT %: 0.000769059  MISS %: 99.9992  AVERAGE MISS PENALTY: 2120.91
LLC2 WRITEBACK ACCESS: 484347  HIT: 380956  MISS: 103391  HIT %: 78.6535  MISS %: 21.3465  AVERAGE MISS PENALTY: 0

LLC3 TOTAL     ACCESS: 1106720  HIT: 451422  MISS: 655298  HIT %: 40.7892  MISS %: 59.2108  AVERAGE MISS PENALTY: 1881.65
LLC3 LOAD      ACCESS:  7412  HIT:     0  MISS:  7412  HIT %:     0  MISS %:   100  AVERAGE MISS PENALTY: 1923.77
LLC3 RFO       ACCESS: 484738  HIT: 70227  MISS: 414511  HIT %: 14.4876  MISS %: 85.5124  AVERAGE MISS PENALTY: 2278.1
LLC3 PREFETCH  ACCESS: 130008  HIT:     1  MISS: 130007  HIT %: 0.000769183  MISS %: 99.9992  AVERAGE MISS PENALTY: 2111.33
LLC3 WRITEBACK ACCESS: 484562  HIT: 381194  MISS: 103368  HIT %: 78.6677  MISS %: 21.3323  AVERAGE MISS PENALTY: 0

[...]
 USEFUL LOAD PREFETCHES:          0 PREFETCH ISSUED TO LOWER LEVEL:  122407520  ACCURACY: 0
 TIMELY PREFETCHES:          0 LATE PREFETCHES: 0 DROPPED PREFETCHES: 0
LLC1 AVERAGE MISS LATENCY: 1899.62 cycles
LLC2 TOTAL     ACCESS: 1113273  HIT: 460350  MISS: 652923  HIT %: 41.351  MISS %: 58.649  AVERAGE MISS PENALTY: 1885.86
LLC2 LOAD      ACCESS:  7327  HIT:     0  MISS:  7327  HIT %:     0  MISS %:   100  AVERAGE MISS PENALTY: 1862.2
LLC2 RFO       ACCESS: 488222  HIT: 74970  MISS: 413252  HIT %: 15.3557  MISS %: 84.6443  AVERAGE MISS PENALTY: 2283.33
LLC2 PREFETCH  ACCESS: 129496  HIT:     0  MISS: 129496  HIT %:     0  MISS %:   100  AVERAGE MISS PENALTY: 2116.59
LLC2 WRITEBACK ACCESS: 488228  HIT: 385380  MISS: 102848  HIT %: 78.9344  MISS %: 21.0656  AVERAGE MISS PENALTY: 0
LLC2 PREFETCH  REQUESTED:     0  ISSUED:     0  USEFUL:     0  USELESS: 1038950
 USEFUL LOAD PREFETCHES:          0 PREFETCH ISSUED TO LOWER LEVEL:  142150336  ACCURACY: 0
 TIMELY PREFETCHES:          0 LATE PREFETCHES: 0 DROPPED PREFETCHES: 0
LLC2 AVERAGE MISS LATENCY: 1885.86 cycles
LLC3 TOTAL     ACCESS: 1113398  HIT: 460346  MISS: 653052  HIT %: 41.346  MISS %: 58.654  AVERAGE MISS PENALTY: 1889.05
LLC3 LOAD      ACCESS:  7300  HIT:     0  MISS:  7300  HIT %:     0  MISS %:   100  AVERAGE MISS PENALTY: 1883.44
LLC3 RFO       ACCESS: 488273  HIT: 75018  MISS: 413255  HIT %: 15.3639  MISS %: 84.6361  AVERAGE MISS PENALTY: 2290.35
LLC3 PREFETCH  ACCESS: 129523  HIT:     0  MISS: 129523  HIT %:     0  MISS %:   100  AVERAGE MISS PENALTY: 2110.84
LLC3 WRITEBACK ACCESS: 488302  HIT: 385328  MISS: 102974  HIT %: 78.9118  MISS %: 21.0882  AVERAGE MISS PENALTY: 0
LLC3 PREFETCH  REQUESTED:     0  ISSUED:     0  USEFUL:     0  USELESS: 1038743
 USEFUL LOAD PREFETCHES:          0 PREFETCH ISSUED TO LOWER LEVEL:  139298637  ACCURACY: 0
 TIMELY PREFETCHES:          0 LATE PREFETCHES: 0 DROPPED PREFETCHES: 0
LLC3 AVERAGE MISS LATENCY: 1889.05 cycles
LLC4 TOTAL     ACCESS: 1113727  HIT: 461098  MISS: 652629  HIT %: 41.4013  MISS %: 58.5987  AVERAGE MISS PENALTY: 1910.81
LLC4 LOAD      ACCESS:  5038  HIT:     0  MISS:  5038  HIT %:     0  MISS %:   100  AVERAGE MISS PENALTY: 1930.63
LLC4 RFO       ACCESS: 488374  HIT: 75163  MISS: 413211  HIT %: 15.3905  MISS %: 84.6095  AVERAGE MISS PENALTY: 2339.64
LLC4 PREFETCH  ACCESS: 131930  HIT:    82  MISS: 131848  HIT %: 0.0621542  MISS %: 99.9378  AVERAGE MISS PENALTY: 2052.06
LLC4 WRITEBACK ACCESS: 488385  HIT: 385853  MISS: 102532  HIT %: 79.0059  MISS %: 20.9941  AVERAGE MISS PENALTY: 0
LLC4 PREFETCH  REQUESTED:     0  ISSUED:     0  USEFUL:     0  USELESS: 1058182
 USEFUL LOAD PREFETCHES:          0 PREFETCH ISSUED TO LOWER LEVEL:  154981469  ACCURACY: 0
 TIMELY PREFETCHES:          0 LATE PREFETCHES: 0 DROPPED PREFETCHES: 0
LLC4 AVERAGE MISS LATENCY: 1910.81 cycles
LLC5 TOTAL     ACCESS: 1113788  HIT: 460918  MISS: 652870  HIT %: 41.3829  MISS %: 58.6171  AVERAGE MISS PENALTY: 1901.63
LLC5 LOAD      ACCESS:  5378  HIT:     0  MISS:  5378  HIT %:     0  MISS %:   100  AVERAGE MISS PENALTY: 1858.41
LLC5 RFO       ACCESS: 488402  HIT: 75236  MISS: 413166  HIT %: 15.4045  MISS %: 84.5955  AVERAGE MISS PENALTY: 2326.9
LLC5 PREFETCH  ACCESS: 131595  HIT:    86  MISS: 131509  HIT %: 0.065352  MISS %: 99.9346  AVERAGE MISS PENALTY: 2054.05
LLC5 WRITEBACK ACCESS: 488413  HIT: 385596  MISS: 102817  HIT %: 78.9488  MISS %: 21.0512  AVERAGE MISS PENALTY: 0
LLC5 PREFETCH  REQUESTED:     0  ISSUED:     0  USEFUL:     0  USELESS: 1055237
 USEFUL LOAD PREFETCHES:          0 PREFETCH ISSUED TO LOWER LEVEL:  153123510  ACCURACY: 0
 TIMELY PREFETCHES:          0 LATE PREFETCHES: 0 DROPPED PREFETCHES: 0
LLC5 AVERAGE MISS LATENCY: 1901.63 cycles
LLC6 TOTAL     ACCESS: 1113535  HIT: 459634  MISS: 653901  HIT %: 41.277  MISS %: 58.723  AVERAGE MISS PENALTY: 1894.23
LLC6 LOAD      ACCESS:  4892  HIT:     0  MISS:  4892  HIT %:     0  MISS %:   100  AVERAGE MISS PENALTY: 1950.79
LLC6 RFO       ACCESS: 488238  HIT: 74906  MISS: 413332  HIT %: 15.3421  MISS %: 84.6579  AVERAGE MISS PENALTY: 2296.3
LLC6 PREFETCH  ACCESS: 132145  HIT:   128  MISS: 132017  HIT %: 0.0968633  MISS %: 99.9031  AVERAGE MISS PENALTY: 2120.65
LLC6 WRITEBACK ACCESS: 488260  HIT: 384600  MISS: 103660  HIT %: 78.7695  MISS %: 21.2305  AVERAGE MISS PENALTY: 0
LLC6 PREFETCH  REQUESTED:     0  ISSUED:     0  USEFUL:     0  USELESS: 1059863
 USEFUL LOAD PREFETCHES:          0 PREFETCH ISSUED TO LOWER LEVEL:  203360979  ACCURACY: 0
 TIMELY PREFETCHES:          0 LATE PREFETCHES: 0 DROPPED PREFETCHES: 0
LLC6 AVERAGE MISS LATENCY: 1894.23 cycles
LLC7 TOTAL     ACCESS: 1113484  HIT: 459859  MISS: 653625  HIT %: 41.2991  MISS %: 58.7009  AVERAGE MISS PENALTY: 1886.76
LLC7 LOAD      ACCESS:  4523  HIT:     0  MISS:  4523  HIT %:     0  MISS %:   100  AVERAGE MISS PENALTY: 1978.03
LLC7 RFO       ACCESS: 488226  HIT: 75006  MISS: 413220  HIT %: 15.363  MISS %: 84.637  AVERAGE MISS PENALTY: 2287.88
LLC7 PREFETCH  ACCESS: 132507  HIT:   117  MISS: 132390  HIT %: 0.0882972  MISS %: 99.9117  AVERAGE MISS PENALTY: 2106.59
LLC7 WRITEBACK ACCESS: 488228  HIT: 384736  MISS: 103492  HIT %: 78.8025  MISS %: 21.1975  AVERAGE MISS PENALTY: 0
LLC7 PREFETCH  REQUESTED:     0  ISSUED:     0  USEFUL:     0  USELESS: 1062145
 USEFUL LOAD PREFETCHES:          0 PREFETCH ISSUED TO LOWER LEVEL:  203283438  ACCURACY: 0
 TIMELY PREFETCHES:          0 LATE PREFETCHES: 0 DROPPED PREFETCHES: 0
LLC7 AVERAGE MISS LATENCY: 1886.76 cycles
ROI Average ROB Stall Cycles:	56.8864
ROI Total ROB Stalls Cycles:	700168572
ROI TOTAL ROB counter      :	12308192
ROI Average Load ROB Stall Cycles:	441.009
ROI Total Load ROB Stalls Cycle  :	646016737
ROI Total Load ROB stalls Counter:	1464861
Major fault: 0 Minor fault: 86746

CPU 7 cumulative IPC: 0.265251 instructions: 200000002 cycles: 754002348
ITLB TOTAL     ACCESS: 33090737  HIT: 33090737  MISS:     0  HIT %:   100  MISS %:     0  AVERAGE MISS PENALTY: 0
ITLB LOAD      ACCESS: 33090737  HIT: 33090737  MISS:     0  HIT %:   100  MISS %:     0  AVERAGE MISS PENALTY: 0
ITLB RFO       ACCESS:     0  HIT:     0  MISS:     0  HIT %:     0  MISS %:     0  AVERAGE MISS PENALTY: 0
ITLB PREFETCH  ACCESS:     0  HIT:     0  MISS:     0  HIT %:     0  MISS %:     0  AVERAGE MISS PENALTY: 0
ITLB WRITEBACK ACCESS:     0  HIT:     0  MISS:     0  HIT %:     0  MISS %:     0  AVERAGE MISS PENALTY: 0
ITLB PREFETCH  REQUESTED:     0  ISSUED:     0  USEFUL:     0  USELESS:     0
 USEFUL LOAD PREFETCHES:          0 PREFETCH ISSUED TO LOWER LEVEL:          0  ACCURACY: -nan
 TIMELY PREFETCHES:          0 LATE PREFETCHES: 0 DROPPED PREFETCHES: 0
ITLB AVERAGE MISS LATENCY: -nan cycles
DTLB TOTAL     ACCESS: 32585453  HIT: 32459339  MISS: 126114  HIT %: 99.613  MISS %: 0.387025  AVERAGE MISS PENALTY: 87.7886
DTLB LOAD      ACCESS: 18419114  HIT: 18402002  MISS: 17112  HIT %: 99.9071  MISS %: 0.0929035  AVERAGE MISS PENALTY: 109.016
DTLB RFO       ACCESS: 14166339  HIT: 14057337  MISS: 109002  HIT %: 99.2306  MISS %: 0.769444  AVERAGE MISS PENALTY: 84.4561
DTLB PREFETCH  ACCESS:     0  HIT:     0  MISS:     0  HIT %:     0  MISS %:     0  AVERAGE MISS PENALTY: 0
DTLB WRITEBACK ACCESS:     0  HIT:     0  MISS:     0  HIT %:     0  MISS %:     0  AVERAGE MISS PENALTY: 0
DTLB PREFETCH  REQUESTED:     0  ISSUED:     0  USEFUL:     0  USELESS:     0
 USEFUL LOAD PREFETCHES:          0 PREFETCH ISSUED TO LOWER LEVEL:          0  ACCURACY: -nan
 TIMELY PREFETCHES:          0 LATE PREFETCHES: 0 DROPPED PREFETCHES: 0
DTLB AVERAGE MISS LATENCY: 87.7886 cycles
STLB TOTAL     ACCESS: 126114  HIT: 57687  MISS: 68427  HIT %: 45.7419  MISS %: 54.2581  AVERAGE MISS PENALTY: 100
STLB LOAD      ACCESS: 17112  HIT:     0  MISS: 17112  HIT %:     0  MISS %:   100  AVERAGE MISS PENALTY: 100
STLB RFO       ACCESS: 109002  HIT: 57687  MISS: 51315  HIT %: 52.9229  MISS %: 47.0771  AVERAGE MISS PENALTY: 100
STLB PREFETCH  ACCESS:     0  HIT:     0  MISS:     0  HIT %:     0  MISS %:     0  AVERAGE MISS PENALTY: 0
STLB WRITEBACK ACCESS:     0  HIT:     0  MISS:     0  HIT %:     0  MISS %:     0  AVERAGE MISS PENALTY: 0
STLB PREFETCH  REQUESTED:     0  ISSUED:     0  USEFUL:     0  USELESS:     0
 USEFUL LOAD PREFETCHES:          0 PREFETCH ISSUED TO LOWER LEVEL:          0  ACCURACY: -nan
 TIMELY PREFETCHES:          0 LATE PREFETCHES: 0 DROPPED PREFETCHES: 0
STLB AVERAGE MISS LATENCY: 100 cycles
L1D TOTAL     ACCESS: 52023481  HIT: 44797102  MISS: 7226379  HIT %: 86.1094  MISS %: 13.8906  AVERAGE MISS PENALTY: 2.27277e+07
L1D LOAD      ACCESS: 16776453  HIT: 16248277  MISS: 528176  HIT %: 96.8517  MISS %: 3.14832  AVERAGE MISS PENALTY: 3.10938e+08
L1D RFO       ACCESS: 28317658  HIT: 22188414  MISS: 6129244  HIT %: 78.3554  MISS %: 21.6446  AVERAGE MISS PENALTY: 1424.3
L1D PREFETCH  ACCESS: 6929370  HIT: 6360411  MISS: 568959  HIT %: 91.7892  MISS %: 8.21083  AVERAGE MISS PENALTY: 925.871
L1D WRITEBACK ACCESS:     0  HIT:     0  MISS:     0  HIT %:     0  MISS %:     0  AVERAGE MISS PENALTY: 0
L1D PREFETCH  REQUESTED: 20515407  ISSUED: 18304209  USEFUL: 566357  USELESS:  2603
 USEFUL LOAD PREFETCHES:     566357 PREFETCH ISSUED TO LOWER LEVEL:  688693872  ACCURACY: 0.0822364
 TIMELY PREFETCHES:     566357 LATE PREFETCHES: 737151 DROPPED PREFETCHES: 2211198
L1D AVERAGE MISS LATENCY: 1386.91 cycles
L1I TOTAL     ACCESS: 43856372  HIT: 43856372  MISS:     0  HIT %:   100  MISS %:     0  AVERAGE MISS PENALTY: 0
L1I LOAD      ACCESS: 43856372  HIT: 43856372  MISS:     0  HIT %:   100  MISS %:     0  AVERAGE MISS PENALTY: 0
L1I RFO       ACCESS:     0  HIT:     0  MISS:     0  HIT %:     0  MISS %:     0  AVERAGE MISS PENALTY: 0
L1I PREFETCH  ACCESS:     0  HIT:     0  MISS:     0  HIT %:     0  MISS %:     0  AVERAGE MISS PENALTY: 0
L1I WRITEBACK ACCESS:     0  HIT:     0  MISS:     0  HIT %:     0  MISS %:     0  AVERAGE MISS PENALTY: 0
L1I PREFETCH  REQUESTED:     0  ISSUED:     0  USEFUL:     0  USELESS:     0
 USEFUL LOAD PREFETCHES:          0 PREFETCH ISSUED TO LOWER LEVEL:          0  ACCURACY: -nan
 TIMELY PREFETCHES:          0 LATE PREFETCHES: 0 DROPPED PREFETCHES: 0
L1I AVERAGE MISS LATENCY: -nan cycles
L2C TOTAL     ACCESS: 13725717  HIT: 8396112  MISS: 5329605  HIT %: 61.1707  MISS %: 38.8293  AVERAGE MISS PENALTY: 3.41056e+07
L2C LOAD      ACCESS: 523148  HIT: 59255  MISS: 463893  HIT %: 11.3266  MISS %: 88.6734  AVERAGE MISS PENALTY: 3.91816e+08
L2C RFO       ACCESS: 6129243  HIT: 2232792  MISS: 3896451  HIT %: 36.4285  MISS %: 63.5715  AVERAGE MISS PENALTY: 2031.52
L2C PREFETCH  ACCESS: 944079  HIT: 312708  MISS: 631371  HIT %: 33.1231  MISS %: 66.8769  AVERAGE MISS PENALTY: 1644.42
L2C WRITEBACK ACCESS: 6129247  HIT: 5791357  MISS: 337890  HIT %: 94.4873  MISS %: 5.51275  AVERAGE MISS PENALTY: 0
L2C PREFETCH  REQUESTED: 1837919  ISSUED: 1837916  USEFUL: 59255  USELESS: 573606
 USEFUL LOAD PREFETCHES:      59255 PREFETCH ISSUED TO LOWER LEVEL:    1918132  ACCURACY: 3.0892
 TIMELY PREFETCHES:      59255 LATE PREFETCHES: 581143 DROPPED PREFETCHES: 3
L2C AVERAGE MISS LATENCY: 1815.16 cycles
LLC0 TOTAL     ACCESS: 1110664  HIT: 457516  MISS: 653148  HIT %: 41.193  MISS %: 58.807  AVERAGE MISS PENALTY: 1910.85
LLC0 LOAD      ACCESS: 20378  HIT:     0  MISS: 20378  HIT %:     0  MISS %:   100  AVERAGE MISS PENALTY: 1926.85
LLC0 RFO       ACCESS: 486919  HIT: 73852  MISS: 413067  HIT %: 15.1672  MISS %: 84.8328  AVERAGE MISS PENALTY: 2349.66
LLC0 PREFETCH  ACCESS: 116434  HIT:     0  MISS: 116434  HIT %:     0  MISS %:   100  AVERAGE MISS PENALTY: 2046.11
LLC0 WRITEBACK ACCESS: 486933  HIT: 383664  MISS: 103269  HIT %: 78.7919  MISS %: 21.2081  AVERAGE MISS PENALTY: 0
LLC0 PREFETCH  REQUESTED:     0  ISSUED:     0  USEFUL:     0  USELESS: 935357
 USEFUL LOAD PREFETCHES:          0 PREFETCH ISSUED TO LOWER LEVEL:  118189737  ACCURACY: 0
 TIMELY PREFETCHES:          0 LATE PREFETCHES: 0 DROPPED PREFETCHES: 0
LLC0 AVERAGE MISS LATENCY: 1910.85 cycles
Deadblocks : 146860 Deadblock percentage : 720.679

LLC1 TOTAL     ACCESS: 1110739  HIT: 457037  MISS: 653702  HIT %: 41.1471  MISS %: 58.8529  AVERAGE MISS PENALTY: 1912.35
LLC1 LOAD      ACCESS: 13008  HIT:     0  MISS: 13008  HIT %:     0  MISS %:   100  AVERAGE MISS PENALTY: 1918.6
LLC1 RFO       ACCESS: 486941  HIT: 73762  MISS: 413179  HIT %: 15.148  MISS %: 84.852  AVERAGE MISS PENALTY: 2349.23
LLC1 PREFETCH  ACCESS: 123816  HIT:     0  MISS: 123816  HIT %:     0  MISS %:   100  AVERAGE MISS PENALTY: 2055.47
LLC1 WRITEBACK ACCESS: 486974  HIT: 383275  MISS: 103699  HIT %: 78.7054  MISS %: 21.2946  AVERAGE MISS PENALTY: 0
LLC1 PREFETCH  REQUESTED:     0  ISSUED:     0  USEFUL:     0  USELESS: 994935
 USEFUL LOAD PREFETCHES:          0 PREFETCH ISSUED TO LOWER LEVEL:  122407520  ACCURACY: 0
 TIMELY PREFETCHES:          0 LATE PREFETCHES: 0 DROPPED PREFETCHES: 0
LLC1 AVERAGE MISS LATENCY: 1912.35 cycles
LLC2 TOTAL     ACCESS: 1110746  HIT: 457941  MISS: 652805  HIT %: 41.2282  MISS %: 58.7718  AVERAGE MISS PENALTY: 1893.37
LLC2 LOAD      ACCESS:  7487  HIT:     0  MISS:  7487  HIT %:     0  MISS %:   100  AVERAGE MISS PENALTY: 1853.95
LLC2 RFO       ACCESS: 486946  HIT: 73768  MISS: 413178  HIT %: 15.1491  MISS %: 84.8509  AVERAGE MISS PENALTY: 2298.12
LLC2 PREFETCH  ACCESS: 129337  HIT:     1  MISS: 129336  HIT %: 0.000773174  MISS %: 99.9992  AVERAGE MISS PENALTY: 2107.57
LLC2 WRITEBACK ACCESS: 486976  HIT: 384172  MISS: 102804  HIT %: 78.8893  MISS %: 21.1107  AVERAGE MISS PENALTY: 0
LLC2 PREFETCH  REQUESTED:     0  ISSUED:     0  USEFUL:     0  USELESS: 1038950
 USEFUL LOAD PREFETCHES:          0 PREFETCH ISSUED TO LOWER LEVEL:  142150336  ACCURACY: 0
 TIMELY PREFETCHES:          0 LATE PREFETCHES: 0 DROPPED PREFETCHES: 0
LLC2 AVERAGE MISS LATENCY: 1893.37 cycles
LLC3 TOTAL     ACCESS: 1110643  HIT: 457378  MISS: 653265  HIT %: 41.1814  MISS %: 58.8186  AVERAGE MISS PENALTY: 1895.2
LLC3 LOAD      ACCESS:  7338  HIT:     0  MISS:  7338  HIT %:     0  MISS %:   100  AVERAGE MISS PENALTY: 1893.61
LLC3 RFO       ACCESS: 486900  HIT: 73747  MISS: 413153  HIT %: 15.1462  MISS %: 84.8538  AVERAGE MISS PENALTY: 2304.95
LLC3 PREFETCH  ACCESS: 129485  HIT:     0  MISS: 129485  HIT %:     0  MISS %:   100  AVERAGE MISS PENALTY: 2099.68
LLC3 WRITEBACK ACCESS: 486920  HIT: 383631  MISS: 103289  HIT %: 78.7873  MISS %: 21.2127  AVERAGE MISS PENALTY: 0
LLC3 PREFETCH  REQUESTED:     0  ISSUED:     0  USEFUL:     0  USELESS: 1038743
 USEFUL LOAD PREFETCHES:          0 PREFETCH ISSUED TO LOWER LEVEL:  139298637  ACCURACY: 0
 TIMELY PREFETCHES:          0 LATE PREFETCHES: 0 DROPPED PREFETCHES: 0
LLC3 AVERAGE MISS LATENCY: 1895.2 cycles
LLC4 TOTAL     ACCESS: 1111228  HIT: 457769  MISS: 653459  HIT %: 41.1949  MISS %: 58.8051  AVERAGE MISS PENALTY: 1919.21
LLC4 LOAD      ACCESS:  5079  HIT:     0  MISS:  5079  HIT %:     0  MISS %:   100  AVERAGE MISS PENALTY: 1937
LLC4 RFO       ACCESS: 487103  HIT: 73958  MISS: 413145  HIT %: 15.1832  MISS %: 84.8168  AVERAGE MISS PENALTY: 2359.85
LLC4 PREFETCH  ACCESS: 131893  HIT:    84  MISS: 131809  HIT %: 0.063688  MISS %: 99.9363  AVERAGE MISS PENALTY: 2043.3
LLC4 WRITEBACK ACCESS: 487153  HIT: 383727  MISS: 103426  HIT %: 78.7693  MISS %: 21.2307  AVERAGE MISS PENALTY: 0
LLC4 PREFETCH  REQUESTED:     0  ISSUED:     0  USEFUL:     0  USELESS: 1058182
 USEFUL LOAD PREFETCHES:          0 PREFETCH ISSUED TO LOWER LEVEL:  154981469  ACCURACY: 0
 TIMELY PREFETCHES:          0 LATE PREFETCHES: 0 DROPPED PREFETCHES: 0
LLC4 AVERAGE MISS LATENCY: 1919.21 cycles
LLC5 TOTAL     ACCESS: 1111089  HIT: 458301  MISS: 652788  HIT %: 41.2479  MISS %: 58.7521  AVERAGE MISS PENALTY: 1919.29
LLC5 LOAD      ACCESS:  5483  HIT:     0  MISS:  5483  HIT %:     0  MISS %:   100  AVERAGE MISS PENALTY: 1874.88
LLC5 RFO       ACCESS: 487049  HIT: 73892  MISS: 413157  HIT %: 15.1714  MISS %: 84.8286  AVERAGE MISS PENALTY: 2356.64
LLC5 PREFETCH  ACCESS: 131488  HIT:    74  MISS: 131414  HIT %: 0.0562789  MISS %: 99.9437  AVERAGE MISS PENALTY: 2046.57
LLC5 WRITEBACK ACCESS: 487069  HIT: 384335  MISS: 102734  HIT %: 78.9077  MISS %: 21.0923  AVERAGE MISS PENALTY: 0
LLC5 PREFETCH  REQUESTED:     0  ISSUED:     0  USEFUL:     0  USELESS: 1055237
 USEFUL LOAD PREFETCHES:          0 PREFETCH ISSUED TO LOWER LEVEL:  153123510  ACCURACY: 0
 TIMELY PREFETCHES:          0 LATE PREFETCHES: 0 DROPPED PREFETCHES: 0
LLC5 AVERAGE MISS LATENCY: 1919.29 cycles
LLC6 TOTAL     ACCESS: 1111055  HIT: 457306  MISS: 653749  HIT %: 41.1596  MISS %: 58.8404  AVERAGE MISS PENALTY: 1901.82
LLC6 LOAD      ACCESS:  4816  HIT:     0  MISS:  4816  HIT %:     0  MISS %:   100  AVERAGE MISS PENALTY: 1952.98
LLC6 RFO       ACCESS: 487006  HIT: 73758  MISS: 413248  HIT %: 15.1452  MISS %: 84.8548  AVERAGE MISS PENALTY: 2310.53
LLC6 PREFETCH  ACCESS: 132202  HIT:    96  MISS: 132106  HIT %: 0.0726161  MISS %: 99.9274  AVERAGE MISS PENALTY: 2112.59
LLC6 WRITEBACK ACCESS: 487031  HIT: 383452  MISS: 103579  HIT %: 78.7326  MISS %: 21.2674  AVERAGE MISS PENALTY: 0
LLC6 PREFETCH  REQUESTED:     0  ISSUED:     0  USEFUL:     0  USELESS: 1059863
 USEFUL LOAD PREFETCHES:          0 PREFETCH ISSUED TO LOWER LEVEL:  203360979  ACCURACY: 0
 TIMELY PREFETCHES:          0 LATE PREFETCHES: 0 DROPPED PREFETCHES: 0
LLC6 AVERAGE MISS LATENCY: 1901.82 cycles
LLC7 TOTAL     ACCESS: 1111036  HIT: 457381  MISS: 653655  HIT %: 41.1671  MISS %: 58.8329  AVERAGE MISS PENALTY: 1897.5
LLC7 LOAD      ACCESS:  4596  HIT:     0  MISS:  4596  HIT %:     0  MISS %:   100  AVERAGE MISS PENALTY: 1982.68
LLC7 RFO       ACCESS: 486988  HIT: 73927  MISS: 413061  HIT %: 15.1805  MISS %: 84.8195  AVERAGE MISS PENALTY: 2306.22
LLC7 PREFETCH  ACCESS: 132424  HIT:    94  MISS: 132330  HIT %: 0.0709841  MISS %: 99.929  AVERAGE MISS PENALTY: 2105.26
LLC7 WRITEBACK ACCESS: 487028  HIT: 383360  MISS: 103668  HIT %: 78.7142  MISS %: 21.2858  AVERAGE MISS PENALTY: 0
LLC7 PREFETCH  REQUESTED:     0  ISSUED:     0  USEFUL:     0  USELESS: 1062145
 USEFUL LOAD PREFETCHES:          0 PREFETCH ISSUED TO LOWER LEVEL:  203283438  ACCURACY: 0
 TIMELY PREFETCHES:          0 LATE PREFETCHES: 0 DROPPED PREFETCHES: 0
LLC7 AVERAGE MISS LATENCY: 1897.5 cycles
ROI Average ROB Stall Cycles:	56.9383
ROI Total ROB Stalls Cycles:	700616548
ROI TOTAL ROB counter      :	12304847
ROI Average Load ROB Stall Cycles:	441.37
ROI Total Load ROB Stalls Cycle  :	646278739
ROI Total Load ROB stalls Counter:	1464256
Major fault: 0 Minor fault: 86710








Interconnect Stats 
LINK 0 BW : 0LINK 1 BW : 0LINK 2 BW : 0LINK 3 BW : 0LINK 4 BW : 0LINK 5 BW : 0LINK 6 BW : 0LINK 7 BW : 0
DRAM Statistics
 CHANNEL 0
 RQ ROW_BUFFER_HIT: 6401825  ROW_BUFFER_MISS: 11229927
 DBUS_CONGESTED: 41863767
 WQ ROW_BUFFER_HIT: 338172  ROW_BUFFER_MISS: 13170682  FULL:    41

 CHANNEL 1
 RQ ROW_BUFFER_HIT: 6395181  ROW_BUFFER_MISS: 11236351
 DBUS_CONGESTED: 41863767
 WQ ROW_BUFFER_HIT: 336245  ROW_BUFFER_MISS: 13172640  FULL:    31

 AVG_CONGESTED_CYCLE: 6
DRAM PAGES: 2097152
Allocated PAGES: 694318
L2C destructor called
L1D destructor called
L1I destructor called
STLB destructor called
DTLB destructor called
ITLB destructor called
L2C destructor called
L1D destructor called
L1I destructor called
STLB destructor called
DTLB destructor called
ITLB destructor called
L2C destructor called
L1D destructor called
L1I destructor called
STLB destructor called
DTLB destructor called
ITLB destructor called
L2C destructor called
L1D destructor called
L1I destructor called
STLB destructor called
DTLB destructor called
ITLB destructor called
L2C destructor called
L1D destructor called
L1I destructor called
STLB destructor called
DTLB destructor called
ITLB destructor called
L2C destructor called
L1D destructor called
L1I destructor called
STLB destructor called
DTLB destructor called
ITLB destructor called
L2C destructor called
L1D destructor called
L1I destructor called
STLB destructor called
DTLB destructor called
ITLB destructor called
L2C destructor called
L1D destructor called
L1I destructor called
STLB destructor called
DTLB destructor called
ITLB destructor called
