
*** ChampSim Multicore Out-of-Order Simulator ***

Warmup Instructions: 200000000
Simulation Instructions: 200000000
Number of CPUs: 8
threads:1

L1I Configuration:
L1I_SET:64
L1I_WAY:8
L1I_RQ_SIZE:64
L1I_WQ_SIZE:64
L1I_PQ_SIZE:8
L1I_MSHR_SIZE:8

L1D Configuration:
L1D_SET:64
L1D_WAY:12
L1D_RQ_SIZE:64
L1D_WQ_SIZE:64
L1D_PQ_SIZE:8
L1D_MSHR_SIZE:16

L2C Configuration:
L2C_SET:1024
L2C_WAY:8
L2C_RQ_SIZE:32
L2C_WQ_SIZE:32
L2C_PQ_SIZE:16
L2C_MSHR_SIZE:32

LLC Configuration:
LLC_SET:2048
LLC_WAY:16
LLC SLICES:8
LLC_RQ_SIZE:64
LLC_WQ_SIZE:64
LLC_PQ_SIZE:32
LLC_MSHR_SIZE:64

Interconnect OFF
Attacker deprioritize is: OFF
Off-chip DRAM Size: 8192 MB Channels: 2 Width: 64-bit Data Rate: 3200 MT/s
PAGE SIZE in KB: 4.000000 
PAGE SIZE in MB: 0.003906 
PAGE offset in bits: 12 
CEASER-S_LLC:0
MIRAGE : 1
CEASER_LATENCY:3
REMAP : OFF
Partitions : 1
Multi-Step : OFF
BFS : OFF

CPU 0 runs /home/anubhav/spec_2017/619.lbm_s-2677B.champsimtrace.xz
CPU 1 runs /home/anubhav/spec_2017/619.lbm_s-2677B.champsimtrace.xz
CPU 2 runs /home/anubhav/spec_2017/619.lbm_s-2677B.champsimtrace.xz
CPU 3 runs /home/anubhav/spec_2017/619.lbm_s-2677B.champsimtrace.xz
CPU 4 runs /home/anubhav/spec_2017/619.lbm_s-2677B.champsimtrace.xz
CPU 5 runs /home/anubhav/spec_2017/619.lbm_s-2677B.champsimtrace.xz
CPU 6 runs /home/anubhav/spec_2017/619.lbm_s-2677B.champsimtrace.xz
CPU 7 runs /home/anubhav/spec_2017/619.lbm_s-2677B.champsimtrace.xz
CPU 0 Bimodal branch predictor
Initialize Hawkeye state
Initialize Hawkeye state
Initialize Hawkeye state
Initialize Hawkeye state
Initialize Hawkeye state
Initialize Hawkeye state
Initialize Hawkeye state
Initialize Hawkeye state
CPU 1 Bimodal branch predictor
Initialize Hawkeye state
Initialize Hawkeye state
Initialize Hawkeye state
Initialize Hawkeye state
Initialize Hawkeye state
Initialize Hawkeye state
Initialize Hawkeye state
Initialize Hawkeye state
CPU 2 Bimodal branch predictor
Initialize Hawkeye state
Initialize Hawkeye state
Initialize Hawkeye state
Initialize Hawkeye state
Initialize Hawkeye state
Initialize Hawkeye state
Initialize Hawkeye state
Initialize Hawkeye state
CPU 3 Bimodal branch predictor
Initialize Hawkeye state
Initialize Hawkeye state
Initialize Hawkeye state
Initialize Hawkeye state
Initialize Hawkeye state
Initialize Hawkeye state
Initialize Hawkeye state
Initialize Hawkeye state
CPU 4 Bimodal branch predictor
Initialize Hawkeye state
Initialize Hawkeye state
Initialize Hawkeye state
Initialize Hawkeye state
Initialize Hawkeye state
Initialize Hawkeye state
Initialize Hawkeye state
Initialize Hawkeye state
CPU 5 Bimodal branch predictor
Initialize Hawkeye state
Initialize Hawkeye state
Initialize Hawkeye state
Initialize Hawkeye state
Initialize Hawkeye state
Initialize Hawkeye state
Initialize Hawkeye state
Initialize Hawkeye state
CPU 6 Bimodal branch predictor
Initialize Hawkeye state
Initialize Hawkeye state
Initialize Hawkeye state
Initialize Hawkeye state
Initialize Hawkeye state
Initialize Hawkeye state
Initialize Hawkeye state
Initialize Hawkeye state
CPU 7 Bimodal branch predictor
Initialize Hawkeye state
Initialize Hawkeye state
Initialize Hawkeye state
Initialize Hawkeye state
Initialize Hawkeye state
Initialize Hawkeye state
Initialize Hawkeye state
Initialize Hawkeye state
Heartbeat CPU 4 instructions: 10000003 cycles: 4003551 heartbeat IPC: 2.49778 cumulative IPC: 2.49778 (Simulation time: 0 hr 52 min 11 sec) 
 Total Blocks : 262144 Invalid Blocks : 0
Heartbeat CPU 7 instructions: 10000003 cycles: 4003725 heartbeat IPC: 2.49767 cumulative IPC: 2.49767 (Simulation time: 0 hr 52 min 11 sec) 
 Total Blocks : 262144 Invalid Blocks : 0
Heartbeat CPU 5 instructions: 10000003 cycles: 4003760 heartbeat IPC: 2.49765 cumulative IPC: 2.49765 (Simulation time: 0 hr 52 min 11 sec) 
 Total Blocks : 262144 Invalid Blocks : 0
Heartbeat CPU 2 instructions: 10000003 cycles: 4003798 heartbeat IPC: 2.49763 cumulative IPC: 2.49763 (Simulation time: 0 hr 52 min 11 sec) 
 Total Blocks : 262144 Invalid Blocks : 0
Heartbeat CPU 6 instructions: 10000003 cycles: 4003800 heartbeat IPC: 2.49763 cumulative IPC: 2.49763 (Simulation time: 0 hr 52 min 11 sec) 
 Total Blocks : 262144 Invalid Blocks : 0
Heartbeat CPU 0 instructions: 10000003 cycles: 4003824 heartbeat IPC: 2.49761 cumulative IPC: 2.49761 (Simulation time: 0 hr 52 min 11 sec) 
 Total Blocks : 262144 Invalid Blocks : 0
Heartbeat CPU 3 instructions: 10000003 cycles: 4003837 heartbeat IPC: 2.4976 cumulative IPC: 2.4976 (Simulation time: 0 hr 52 min 11 sec) 
 Total Blocks : 262144 Invalid Blocks : 0
Heartbeat CPU 1 instructions: 10000003 cycles: 4003937 heartbeat IPC: 2.49754 cumulative IPC: 2.49754 (Simulation time: 0 hr 52 min 11 sec) 
 Total Blocks : 262144 Invalid Blocks : 0
Heartbeat CPU 4 instructions: 20000001 cycles: 7981706 heartbeat IPC: 2.51373 cumulative IPC: 2.50573 (Simulation time: 1 hr 52 min 47 sec) 
 Total Blocks : 262144 Invalid Blocks : 0
Heartbeat CPU 7 instructions: 20000001 cycles: 7981724 heartbeat IPC: 2.51383 cumulative IPC: 2.50572 (Simulation time: 1 hr 52 min 47 sec) 
 Total Blocks : 262144 Invalid Blocks : 0
Heartbeat CPU 6 instructions: 20000001 cycles: 7981884 heartbeat IPC: 2.51377 cumulative IPC: 2.50567 (Simulation time: 1 hr 52 min 47 sec) 
 Total Blocks : 262144 Invalid Blocks : 0
Heartbeat CPU 5 instructions: 20000001 cycles: 7981917 heartbeat IPC: 2.51373 cumulative IPC: 2.50566 (Simulation time: 1 hr 52 min 47 sec) 
 Total Blocks : 262144 Invalid Blocks : 0
Heartbeat CPU 1 instructions: 20000001 cycles: 7981980 heartbeat IPC: 2.5138 cumulative IPC: 2.50564 (Simulation time: 1 hr 52 min 47 sec) 
 Total Blocks : 262144 Invalid Blocks : 0
Heartbeat CPU 3 instructions: 20000001 cycles: 7982158 heartbeat IPC: 2.51362 cumulative IPC: 2.50559 (Simulation time: 1 hr 52 min 47 sec) 
 Total Blocks : 262144 Invalid Blocks : 0
Heartbeat CPU 0 instructions: 20000001 cycles: 7982225 heartbeat IPC: 2.51357 cumulative IPC: 2.50557 (Simulation time: 1 hr 52 min 47 sec) 
 Total Blocks : 262144 Invalid Blocks : 0
Heartbeat CPU 2 instructions: 20000001 cycles: 7982268 heartbeat IPC: 2.51353 cumulative IPC: 2.50555 (Simulation time: 1 hr 52 min 47 sec) 
 Total Blocks : 262144 Invalid Blocks : 0
Heartbeat CPU 7 instructions: 30000000 cycles: 11983201 heartbeat IPC: 2.49908 cumulative IPC: 2.5035 (Simulation time: 3 hr 9 min 57 sec) 
 Total Blocks : 262144 Invalid Blocks : 0
Heartbeat CPU 6 instructions: 30000000 cycles: 11983273 heartbeat IPC: 2.49913 cumulative IPC: 2.50349 (Simulation time: 3 hr 9 min 57 sec) 
 Total Blocks : 262144 Invalid Blocks : 0
Heartbeat CPU 5 instructions: 30000000 cycles: 11983446 heartbeat IPC: 2.49904 cumulative IPC: 2.50345 (Simulation time: 3 hr 9 min 57 sec) 
 Total Blocks : 262144 Invalid Blocks : 0
Heartbeat CPU 4 instructions: 30000000 cycles: 11983455 heartbeat IPC: 2.49891 cumulative IPC: 2.50345 (Simulation time: 3 hr 9 min 57 sec) 
 Total Blocks : 262144 Invalid Blocks : 0
Heartbeat CPU 1 instructions: 30000000 cycles: 11983460 heartbeat IPC: 2.49908 cumulative IPC: 2.50345 (Simulation time: 3 hr 9 min 57 sec) 
 Total Blocks : 262144 Invalid Blocks : 0
Heartbeat CPU 2 instructions: 30000000 cycles: 11984044 heartbeat IPC: 2.49889 cumulative IPC: 2.50333 (Simulation time: 3 hr 9 min 58 sec) 
 Total Blocks : 262144 Invalid Blocks : 0
Heartbeat CPU 3 instructions: 30000000 cycles: 11984380 heartbeat IPC: 2.49861 cumulative IPC: 2.50326 (Simulation time: 3 hr 9 min 58 sec) 
 Total Blocks : 262144 Invalid Blocks : 0
Heartbeat CPU 0 instructions: 30000000 cycles: 11984594 heartbeat IPC: 2.49852 cumulative IPC: 2.50321 (Simulation time: 3 hr 9 min 58 sec) 
 Total Blocks : 262144 Invalid Blocks : 0
Heartbeat CPU 7 instructions: 40000001 cycles: 15974475 heartbeat IPC: 2.50547 cumulative IPC: 2.50399 (Simulation time: 4 hr 40 min 30 sec) 
 Total Blocks : 262144 Invalid Blocks : 0
Heartbeat CPU 6 instructions: 40000001 cycles: 15974775 heartbeat IPC: 2.50532 cumulative IPC: 2.50395 (Simulation time: 4 hr 40 min 31 sec) 
 Total Blocks : 262144 Invalid Blocks : 0
Heartbeat CPU 5 instructions: 40000001 cycles: 15974923 heartbeat IPC: 2.50534 cumulative IPC: 2.50392 (Simulation time: 4 hr 40 min 31 sec) 
 Total Blocks : 262144 Invalid Blocks : 0
Heartbeat CPU 4 instructions: 40000001 cycles: 15975099 heartbeat IPC: 2.50523 cumulative IPC: 2.5039 (Simulation time: 4 hr 40 min 32 sec) 
 Total Blocks : 262144 Invalid Blocks : 0
Heartbeat CPU 1 instructions: 40000001 cycles: 15975200 heartbeat IPC: 2.50517 cumulative IPC: 2.50388 (Simulation time: 4 hr 40 min 32 sec) 
 Total Blocks : 262144 Invalid Blocks : 0
Heartbeat CPU 2 instructions: 40000001 cycles: 15975979 heartbeat IPC: 2.50505 cumulative IPC: 2.50376 (Simulation time: 4 hr 40 min 33 sec) 
 Total Blocks : 262144 Invalid Blocks : 0
Heartbeat CPU 3 instructions: 40000001 cycles: 15976201 heartbeat IPC: 2.50512 cumulative IPC: 2.50372 (Simulation time: 4 hr 40 min 33 sec) 
 Total Blocks : 262144 Invalid Blocks : 0
Heartbeat CPU 0 instructions: 40000001 cycles: 15976601 heartbeat IPC: 2.50501 cumulative IPC: 2.50366 (Simulation time: 4 hr 40 min 34 sec) 
 Total Blocks : 262144 Invalid Blocks : 0
Heartbeat CPU 6 instructions: 50000000 cycles: 19984103 heartbeat IPC: 2.49418 cumulative IPC: 2.50199 (Simulation time: 6 hr 31 min 4 sec) 
 Total Blocks : 262144 Invalid Blocks : 0
Heartbeat CPU 5 instructions: 50000000 cycles: 19984149 heartbeat IPC: 2.49425 cumulative IPC: 2.50198 (Simulation time: 6 hr 31 min 4 sec) 
 Total Blocks : 262144 Invalid Blocks : 0
Heartbeat CPU 7 instructions: 50000000 cycles: 19984151 heartbeat IPC: 2.49397 cumulative IPC: 2.50198 (Simulation time: 6 hr 31 min 4 sec) 
 Total Blocks : 262144 Invalid Blocks : 0
Heartbeat CPU 4 instructions: 50000000 cycles: 19984582 heartbeat IPC: 2.49409 cumulative IPC: 2.50193 (Simulation time: 6 hr 31 min 4 sec) 
 Total Blocks : 262144 Invalid Blocks : 0
Heartbeat CPU 1 instructions: 50000000 cycles: 19984957 heartbeat IPC: 2.49392 cumulative IPC: 2.50188 (Simulation time: 6 hr 31 min 5 sec) 
 Total Blocks : 262144 Invalid Blocks : 0
Heartbeat CPU 2 instructions: 50000000 cycles: 19985311 heartbeat IPC: 2.49418 cumulative IPC: 2.50184 (Simulation time: 6 hr 31 min 5 sec) 
 Total Blocks : 262144 Invalid Blocks : 0
Heartbeat CPU 3 instructions: 50000000 cycles: 19985690 heartbeat IPC: 2.49408 cumulative IPC: 2.50179 (Simulation time: 6 hr 31 min 6 sec) 
 Total Blocks : 262144 Invalid Blocks : 0
Heartbeat CPU 0 instructions: 50000000 cycles: 19986634 heartbeat IPC: 2.49374 cumulative IPC: 2.50167 (Simulation time: 6 hr 31 min 7 sec) 
 Total Blocks : 262144 Invalid Blocks : 0
Heartbeat CPU 6 instructions: 60000002 cycles: 23989955 heartbeat IPC: 2.49635 cumulative IPC: 2.50105 (Simulation time: 8 hr 40 min 20 sec) 
 Total Blocks : 262144 Invalid Blocks : 0
Heartbeat CPU 7 instructions: 60000002 cycles: 23990004 heartbeat IPC: 2.49635 cumulative IPC: 2.50104 (Simulation time: 8 hr 40 min 20 sec) 
 Total Blocks : 262144 Invalid Blocks : 0
Heartbeat CPU 5 instructions: 60000002 cycles: 23990037 heartbeat IPC: 2.49633 cumulative IPC: 2.50104 (Simulation time: 8 hr 40 min 20 sec) 
 Total Blocks : 262144 Invalid Blocks : 0
Heartbeat CPU 4 instructions: 60000002 cycles: 23990463 heartbeat IPC: 2.49633 cumulative IPC: 2.50099 (Simulation time: 8 hr 40 min 22 sec) 
 Total Blocks : 262144 Invalid Blocks : 0
Heartbeat CPU 1 instructions: 60000002 cycles: 23990720 heartbeat IPC: 2.4964 cumulative IPC: 2.50097 (Simulation time: 8 hr 40 min 22 sec) 
 Total Blocks : 262144 Invalid Blocks : 0
Heartbeat CPU 2 instructions: 60000002 cycles: 23991792 heartbeat IPC: 2.49596 cumulative IPC: 2.50086 (Simulation time: 8 hr 40 min 24 sec) 
 Total Blocks : 262144 Invalid Blocks : 0
Heartbeat CPU 3 instructions: 60000002 cycles: 23992013 heartbeat IPC: 2.49605 cumulative IPC: 2.50083 (Simulation time: 8 hr 40 min 25 sec) 
 Total Blocks : 262144 Invalid Blocks : 0
Heartbeat CPU 0 instructions: 60000002 cycles: 23992816 heartbeat IPC: 2.49614 cumulative IPC: 2.50075 (Simulation time: 8 hr 40 min 27 sec) 
 Total Blocks : 262144 Invalid Blocks : 0
Heartbeat CPU 6 instructions: 70000001 cycles: 27983499 heartbeat IPC: 2.50404 cumulative IPC: 2.50147 (Simulation time: 10 hr 57 min 20 sec) 
 Total Blocks : 262144 Invalid Blocks : 0
Heartbeat CPU 7 instructions: 70000001 cycles: 27984096 heartbeat IPC: 2.5037 cumulative IPC: 2.50142 (Simulation time: 10 hr 57 min 22 sec) 
 Total Blocks : 262144 Invalid Blocks : 0
Heartbeat CPU 5 instructions: 70000001 cycles: 27984178 heartbeat IPC: 2.50367 cumulative IPC: 2.50141 (Simulation time: 10 hr 57 min 22 sec) 
 Total Blocks : 262144 Invalid Blocks : 0
Heartbeat CPU 4 instructions: 70000001 cycles: 27984548 heartbeat IPC: 2.5037 cumulative IPC: 2.50138 (Simulation time: 10 hr 57 min 23 sec) 
 Total Blocks : 262144 Invalid Blocks : 0
Heartbeat CPU 1 instructions: 70000001 cycles: 27985022 heartbeat IPC: 2.50357 cumulative IPC: 2.50134 (Simulation time: 10 hr 57 min 25 sec) 
 Total Blocks : 262144 Invalid Blocks : 0
Heartbeat CPU 3 instructions: 70000001 cycles: 27985749 heartbeat IPC: 2.50392 cumulative IPC: 2.50127 (Simulation time: 10 hr 57 min 27 sec) 
 Total Blocks : 262144 Invalid Blocks : 0
Heartbeat CPU 2 instructions: 70000001 cycles: 27985981 heartbeat IPC: 2.50364 cumulative IPC: 2.50125 (Simulation time: 10 hr 57 min 28 sec) 
 Total Blocks : 262144 Invalid Blocks : 0
Heartbeat CPU 0 instructions: 70000001 cycles: 27987138 heartbeat IPC: 2.50355 cumulative IPC: 2.50115 (Simulation time: 10 hr 57 min 31 sec) 
 Total Blocks : 262144 Invalid Blocks : 0
Heartbeat CPU 6 instructions: 80000000 cycles: 31981824 heartbeat IPC: 2.50105 cumulative IPC: 2.50142 (Simulation time: 13 hr 17 min 48 sec) 
 Total Blocks : 262144 Invalid Blocks : 0
Heartbeat CPU 7 instructions: 80000000 cycles: 31981991 heartbeat IPC: 2.50132 cumulative IPC: 2.50141 (Simulation time: 13 hr 17 min 49 sec) 
 Total Blocks : 262144 Invalid Blocks : 0
Heartbeat CPU 5 instructions: 80000000 cycles: 31982306 heartbeat IPC: 2.50117 cumulative IPC: 2.50138 (Simulation time: 13 hr 17 min 49 sec) 
 Total Blocks : 262144 Invalid Blocks : 0
Heartbeat CPU 4 instructions: 80000000 cycles: 31982791 heartbeat IPC: 2.5011 cumulative IPC: 2.50135 (Simulation time: 13 hr 17 min 50 sec) 
 Total Blocks : 262144 Invalid Blocks : 0
Heartbeat CPU 1 instructions: 80000000 cycles: 31983359 heartbeat IPC: 2.50104 cumulative IPC: 2.5013 (Simulation time: 13 hr 17 min 51 sec) 
 Total Blocks : 262144 Invalid Blocks : 0
Heartbeat CPU 2 instructions: 80000000 cycles: 31984104 heartbeat IPC: 2.50117 cumulative IPC: 2.50124 (Simulation time: 13 hr 17 min 52 sec) 
 Total Blocks : 262144 Invalid Blocks : 0
Heartbeat CPU 3 instructions: 80000000 cycles: 31984110 heartbeat IPC: 2.50102 cumulative IPC: 2.50124 (Simulation time: 13 hr 17 min 52 sec) 
 Total Blocks : 262144 Invalid Blocks : 0
Heartbeat CPU 0 instructions: 80000000 cycles: 31985572 heartbeat IPC: 2.50098 cumulative IPC: 2.50113 (Simulation time: 13 hr 17 min 55 sec) 
 Total Blocks : 262144 Invalid Blocks : 0
Heartbeat CPU 6 instructions: 90000003 cycles: 35999993 heartbeat IPC: 2.4887 cumulative IPC: 2.5 (Simulation time: 15 hr 49 min 47 sec) 
 Total Blocks : 262144 Invalid Blocks : 0
Heartbeat CPU 7 instructions: 90000003 cycles: 36000274 heartbeat IPC: 2.48863 cumulative IPC: 2.49998 (Simulation time: 15 hr 49 min 47 sec) 
 Total Blocks : 262144 Invalid Blocks : 0
Heartbeat CPU 5 instructions: 90000003 cycles: 36000395 heartbeat IPC: 2.48875 cumulative IPC: 2.49997 (Simulation time: 15 hr 49 min 48 sec) 
 Total Blocks : 262144 Invalid Blocks : 0
Heartbeat CPU 4 instructions: 90000001 cycles: 36001145 heartbeat IPC: 2.48858 cumulative IPC: 2.49992 (Simulation time: 15 hr 49 min 51 sec) 
 Total Blocks : 262144 Invalid Blocks : 0
Heartbeat CPU 1 instructions: 90000003 cycles: 36001703 heartbeat IPC: 2.48859 cumulative IPC: 2.49988 (Simulation time: 15 hr 49 min 52 sec) 
 Total Blocks : 262144 Invalid Blocks : 0
Heartbeat CPU 2 instructions: 90000003 cycles: 36002231 heartbeat IPC: 2.48872 cumulative IPC: 2.49985 (Simulation time: 15 hr 49 min 53 sec) 
 Total Blocks : 262144 Invalid Blocks : 0
Heartbeat CPU 3 instructions: 90000003 cycles: 36002302 heartbeat IPC: 2.48868 cumulative IPC: 2.49984 (Simulation time: 15 hr 49 min 53 sec) 
 Total Blocks : 262144 Invalid Blocks : 0
Heartbeat CPU 0 instructions: 90000003 cycles: 36004070 heartbeat IPC: 2.48849 cumulative IPC: 2.49972 (Simulation time: 15 hr 49 min 57 sec) 
 Total Blocks : 262144 Invalid Blocks : 0
Heartbeat CPU 6 instructions: 100000001 cycles: 40009504 heartbeat IPC: 2.49407 cumulative IPC: 2.49941 (Simulation time: 18 hr 34 min 31 sec) 
 Total Blocks : 262144 Invalid Blocks : 0
Heartbeat CPU 7 instructions: 100000001 cycles: 40009748 heartbeat IPC: 2.49409 cumulative IPC: 2.49939 (Simulation time: 18 hr 34 min 31 sec) 
 Total Blocks : 262144 Invalid Blocks : 0
Heartbeat CPU 5 instructions: 100000001 cycles: 40010240 heartbeat IPC: 2.49386 cumulative IPC: 2.49936 (Simulation time: 18 hr 34 min 33 sec) 
 Total Blocks : 262144 Invalid Blocks : 0
Heartbeat CPU 4 instructions: 100000001 cycles: 40010737 heartbeat IPC: 2.49402 cumulative IPC: 2.49933 (Simulation time: 18 hr 34 min 33 sec) 
 Total Blocks : 262144 Invalid Blocks : 0
Heartbeat CPU 1 instructions: 100000001 cycles: 40011276 heartbeat IPC: 2.49403 cumulative IPC: 2.4993 (Simulation time: 18 hr 34 min 35 sec) 
 Total Blocks : 262144 Invalid Blocks : 0
Heartbeat CPU 2 instructions: 100000001 cycles: 40011401 heartbeat IPC: 2.49428 cumulative IPC: 2.49929 (Simulation time: 18 hr 34 min 35 sec) 
 Total Blocks : 262144 Invalid Blocks : 0
Heartbeat CPU 3 instructions: 100000001 cycles: 40012068 heartbeat IPC: 2.49391 cumulative IPC: 2.49925 (Simulation time: 18 hr 34 min 36 sec) 
 Total Blocks : 262144 Invalid Blocks : 0
Heartbeat CPU 0 instructions: 100000001 cycles: 40013933 heartbeat IPC: 2.49385 cumulative IPC: 2.49913 (Simulation time: 18 hr 34 min 41 sec) 
 Total Blocks : 262144 Invalid Blocks : 0
Heartbeat CPU 6 instructions: 110000000 cycles: 44032119 heartbeat IPC: 2.48594 cumulative IPC: 2.49818 (Simulation time: 21 hr 33 min 9 sec) 
 Total Blocks : 262144 Invalid Blocks : 0
Heartbeat CPU 5 instructions: 110000000 cycles: 44032816 heartbeat IPC: 2.48597 cumulative IPC: 2.49814 (Simulation time: 21 hr 33 min 11 sec) 
 Total Blocks : 262144 Invalid Blocks : 0
Heartbeat CPU 7 instructions: 110000000 cycles: 44032961 heartbeat IPC: 2.48558 cumulative IPC: 2.49813 (Simulation time: 21 hr 33 min 12 sec) 
 Total Blocks : 262144 Invalid Blocks : 0
Heartbeat CPU 4 instructions: 110000000 cycles: 44033510 heartbeat IPC: 2.48585 cumulative IPC: 2.4981 (Simulation time: 21 hr 33 min 13 sec) 
 Total Blocks : 262144 Invalid Blocks : 0
Heartbeat CPU 1 instructions: 110000000 cycles: 44034226 heartbeat IPC: 2.48574 cumulative IPC: 2.49806 (Simulation time: 21 hr 33 min 15 sec) 
 Total Blocks : 262144 Invalid Blocks : 0
Heartbeat CPU 2 instructions: 110000000 cycles: 44034353 heartbeat IPC: 2.48574 cumulative IPC: 2.49805 (Simulation time: 21 hr 33 min 16 sec) 
 Total Blocks : 262144 Invalid Blocks : 0
Heartbeat CPU 3 instructions: 110000000 cycles: 44034404 heartbeat IPC: 2.48612 cumulative IPC: 2.49805 (Simulation time: 21 hr 33 min 16 sec) 
 Total Blocks : 262144 Invalid Blocks : 0
Heartbeat CPU 0 instructions: 110000000 cycles: 44036853 heartbeat IPC: 2.48576 cumulative IPC: 2.49791 (Simulation time: 21 hr 33 min 24 sec) 
 Total Blocks : 262144 Invalid Blocks : 0
Heartbeat CPU 6 instructions: 120000003 cycles: 48035032 heartbeat IPC: 2.49818 cumulative IPC: 2.49818 (Simulation time: 24 hr 47 min 32 sec) 
 Total Blocks : 262144 Invalid Blocks : 0
Heartbeat CPU 5 instructions: 120000003 cycles: 48035474 heartbeat IPC: 2.49834 cumulative IPC: 2.49815 (Simulation time: 24 hr 47 min 33 sec) 
 Total Blocks : 262144 Invalid Blocks : 0
Heartbeat CPU 7 instructions: 120000003 cycles: 48035798 heartbeat IPC: 2.49823 cumulative IPC: 2.49814 (Simulation time: 24 hr 47 min 34 sec) 
 Total Blocks : 262144 Invalid Blocks : 0
Heartbeat CPU 4 instructions: 120000003 cycles: 48036308 heartbeat IPC: 2.49825 cumulative IPC: 2.49811 (Simulation time: 24 hr 47 min 36 sec) 
 Total Blocks : 262144 Invalid Blocks : 0
Heartbeat CPU 3 instructions: 120000003 cycles: 48037036 heartbeat IPC: 2.49836 cumulative IPC: 2.49807 (Simulation time: 24 hr 47 min 38 sec) 
 Total Blocks : 262144 Invalid Blocks : 0
Heartbeat CPU 2 instructions: 120000003 cycles: 48037072 heartbeat IPC: 2.4983 cumulative IPC: 2.49807 (Simulation time: 24 hr 47 min 38 sec) 
 Total Blocks : 262144 Invalid Blocks : 0
Heartbeat CPU 1 instructions: 120000003 cycles: 48037085 heartbeat IPC: 2.49822 cumulative IPC: 2.49807 (Simulation time: 24 hr 47 min 38 sec) 
 Total Blocks : 262144 Invalid Blocks : 0
Heartbeat CPU 0 instructions: 120000003 cycles: 48039886 heartbeat IPC: 2.49811 cumulative IPC: 2.49792 (Simulation time: 24 hr 47 min 46 sec) 
 Total Blocks : 262144 Invalid Blocks : 0
Heartbeat CPU 6 instructions: 130000001 cycles: 52036590 heartbeat IPC: 2.49903 cumulative IPC: 2.49824 (Simulation time: 28 hr 18 min 31 sec) 
 Total Blocks : 262144 Invalid Blocks : 0
Heartbeat CPU 5 instructions: 130000001 cycles: 52037509 heartbeat IPC: 2.49873 cumulative IPC: 2.4982 (Simulation time: 28 hr 18 min 33 sec) 
 Total Blocks : 262144 Invalid Blocks : 0
Heartbeat CPU 7 instructions: 130000001 cycles: 52037561 heartbeat IPC: 2.4989 cumulative IPC: 2.4982 (Simulation time: 28 hr 18 min 33 sec) 
 Total Blocks : 262144 Invalid Blocks : 0
Heartbeat CPU 4 instructions: 130000001 cycles: 52038134 heartbeat IPC: 2.49886 cumulative IPC: 2.49817 (Simulation time: 28 hr 18 min 35 sec) 
 Total Blocks : 262144 Invalid Blocks : 0
Heartbeat CPU 3 instructions: 130000001 cycles: 52038751 heartbeat IPC: 2.49893 cumulative IPC: 2.49814 (Simulation time: 28 hr 18 min 38 sec) 
 Total Blocks : 262144 Invalid Blocks : 0
Heartbeat CPU 1 instructions: 130000001 cycles: 52038756 heartbeat IPC: 2.49896 cumulative IPC: 2.49814 (Simulation time: 28 hr 18 min 38 sec) 
 Total Blocks : 262144 Invalid Blocks : 0
Heartbeat CPU 2 instructions: 130000001 cycles: 52038851 heartbeat IPC: 2.49889 cumulative IPC: 2.49813 (Simulation time: 28 hr 18 min 39 sec) 
 Total Blocks : 262144 Invalid Blocks : 0
Heartbeat CPU 0 instructions: 130000001 cycles: 52041928 heartbeat IPC: 2.49872 cumulative IPC: 2.49799 (Simulation time: 28 hr 18 min 47 sec) 
 Total Blocks : 262144 Invalid Blocks : 0
Heartbeat CPU 6 instructions: 140000000 cycles: 56047974 heartbeat IPC: 2.4929 cumulative IPC: 2.49786 (Simulation time: 32 hr 8 min 2 sec) 
 Total Blocks : 262144 Invalid Blocks : 0
Heartbeat CPU 5 instructions: 140000000 cycles: 56048749 heartbeat IPC: 2.49299 cumulative IPC: 2.49783 (Simulation time: 32 hr 8 min 6 sec) 
 Total Blocks : 262144 Invalid Blocks : 0
Heartbeat CPU 7 instructions: 140000000 cycles: 56048977 heartbeat IPC: 2.49289 cumulative IPC: 2.49782 (Simulation time: 32 hr 8 min 7 sec) 
 Total Blocks : 262144 Invalid Blocks : 0
Heartbeat CPU 4 instructions: 140000000 cycles: 56049866 heartbeat IPC: 2.49269 cumulative IPC: 2.49778 (Simulation time: 32 hr 8 min 12 sec) 
 Total Blocks : 262144 Invalid Blocks : 0
Heartbeat CPU 1 instructions: 140000000 cycles: 56050282 heartbeat IPC: 2.49282 cumulative IPC: 2.49776 (Simulation time: 32 hr 8 min 14 sec) 
 Total Blocks : 262144 Invalid Blocks : 0
Heartbeat CPU 2 instructions: 140000000 cycles: 56050428 heartbeat IPC: 2.49278 cumulative IPC: 2.49775 (Simulation time: 32 hr 8 min 15 sec) 
 Total Blocks : 262144 Invalid Blocks : 0
Heartbeat CPU 3 instructions: 140000000 cycles: 56050492 heartbeat IPC: 2.49268 cumulative IPC: 2.49775 (Simulation time: 32 hr 8 min 15 sec) 
 Total Blocks : 262144 Invalid Blocks : 0
Heartbeat CPU 0 instructions: 140000000 cycles: 56053358 heartbeat IPC: 2.49288 cumulative IPC: 2.49762 (Simulation time: 32 hr 8 min 27 sec) 
 Total Blocks : 262144 Invalid Blocks : 0
Heartbeat CPU 6 instructions: 150000000 cycles: 60067074 heartbeat IPC: 2.48812 cumulative IPC: 2.49721 (Simulation time: 36 hr 22 min 31 sec) 
 Total Blocks : 262144 Invalid Blocks : 0
Heartbeat CPU 5 instructions: 150000000 cycles: 60067494 heartbeat IPC: 2.48834 cumulative IPC: 2.49719 (Simulation time: 36 hr 22 min 33 sec) 
 Total Blocks : 262144 Invalid Blocks : 0
Heartbeat CPU 7 instructions: 150000000 cycles: 60067793 heartbeat IPC: 2.4883 cumulative IPC: 2.49718 (Simulation time: 36 hr 22 min 37 sec) 
 Total Blocks : 262144 Invalid Blocks : 0
Heartbeat CPU 4 instructions: 150000000 cycles: 60069125 heartbeat IPC: 2.48802 cumulative IPC: 2.49712 (Simulation time: 36 hr 22 min 40 sec) 
 Total Blocks : 262144 Invalid Blocks : 0
Heartbeat CPU 2 instructions: 150000000 cycles: 60069184 heartbeat IPC: 2.48833 cumulative IPC: 2.49712 (Simulation time: 36 hr 22 min 40 sec) 
 Total Blocks : 262144 Invalid Blocks : 0
Heartbeat CPU 3 instructions: 150000000 cycles: 60069388 heartbeat IPC: 2.48825 cumulative IPC: 2.49711 (Simulation time: 36 hr 22 min 41 sec) 
 Total Blocks : 262144 Invalid Blocks : 0
Heartbeat CPU 1 instructions: 150000000 cycles: 60069399 heartbeat IPC: 2.48811 cumulative IPC: 2.49711 (Simulation time: 36 hr 22 min 42 sec) 
 Total Blocks : 262144 Invalid Blocks : 0
Heartbeat CPU 0 instructions: 150000000 cycles: 60071987 heartbeat IPC: 2.48841 cumulative IPC: 2.497 (Simulation time: 36 hr 22 min 52 sec) 
 Total Blocks : 262144 Invalid Blocks : 0
Heartbeat CPU 6 instructions: 160000001 cycles: 64067711 heartbeat IPC: 2.4996 cumulative IPC: 2.49736 (Simulation time: 40 hr 51 min 55 sec) 
 Total Blocks : 262144 Invalid Blocks : 0
Heartbeat CPU 5 instructions: 160000001 cycles: 64067903 heartbeat IPC: 2.49974 cumulative IPC: 2.49735 (Simulation time: 40 hr 51 min 55 sec) 
 Total Blocks : 262144 Invalid Blocks : 0
Heartbeat CPU 7 instructions: 160000001 cycles: 64068227 heartbeat IPC: 2.49973 cumulative IPC: 2.49734 (Simulation time: 40 hr 51 min 57 sec) 
 Total Blocks : 262144 Invalid Blocks : 0
Heartbeat CPU 3 instructions: 160000001 cycles: 64069507 heartbeat IPC: 2.49993 cumulative IPC: 2.49729 (Simulation time: 40 hr 51 min 59 sec) 
 Total Blocks : 262144 Invalid Blocks : 0
Heartbeat CPU 4 instructions: 160000001 cycles: 64069513 heartbeat IPC: 2.49976 cumulative IPC: 2.49729 (Simulation time: 40 hr 51 min 59 sec) 
 Total Blocks : 262144 Invalid Blocks : 0
Heartbeat CPU 2 instructions: 160000001 cycles: 64069518 heartbeat IPC: 2.49979 cumulative IPC: 2.49729 (Simulation time: 40 hr 51 min 59 sec) 
 Total Blocks : 262144 Invalid Blocks : 0
Heartbeat CPU 1 instructions: 160000001 cycles: 64070181 heartbeat IPC: 2.49951 cumulative IPC: 2.49726 (Simulation time: 40 hr 52 min 3 sec) 
 Total Blocks : 262144 Invalid Blocks : 0
Heartbeat CPU 0 instructions: 160000001 cycles: 64072253 heartbeat IPC: 2.49983 cumulative IPC: 2.49718 (Simulation time: 40 hr 52 min 9 sec) 
 Total Blocks : 262144 Invalid Blocks : 0
Heartbeat CPU 5 instructions: 170000002 cycles: 68064660 heartbeat IPC: 2.50203 cumulative IPC: 2.49763 (Simulation time: 45 hr 21 min 55 sec) 
 Total Blocks : 262144 Invalid Blocks : 0
Heartbeat CPU 6 instructions: 170000002 cycles: 68064660 heartbeat IPC: 2.50191 cumulative IPC: 2.49763 (Simulation time: 45 hr 21 min 55 sec) 
 Total Blocks : 262144 Invalid Blocks : 0
Heartbeat CPU 7 instructions: 170000002 cycles: 68065515 heartbeat IPC: 2.5017 cumulative IPC: 2.49759 (Simulation time: 45 hr 22 min 0 sec) 
 Total Blocks : 262144 Invalid Blocks : 0
Heartbeat CPU 3 instructions: 170000002 cycles: 68066496 heartbeat IPC: 2.50188 cumulative IPC: 2.49756 (Simulation time: 45 hr 22 min 3 sec) 
 Total Blocks : 262144 Invalid Blocks : 0
Heartbeat CPU 2 instructions: 170000002 cycles: 68066511 heartbeat IPC: 2.50188 cumulative IPC: 2.49756 (Simulation time: 45 hr 22 min 3 sec) 
 Total Blocks : 262144 Invalid Blocks : 0
Heartbeat CPU 4 instructions: 170000002 cycles: 68066514 heartbeat IPC: 2.50188 cumulative IPC: 2.49756 (Simulation time: 45 hr 22 min 3 sec) 
 Total Blocks : 262144 Invalid Blocks : 0
Heartbeat CPU 1 instructions: 170000002 cycles: 68067015 heartbeat IPC: 2.50198 cumulative IPC: 2.49754 (Simulation time: 45 hr 22 min 5 sec) 
 Total Blocks : 262144 Invalid Blocks : 0
Heartbeat CPU 0 instructions: 170000002 cycles: 68069415 heartbeat IPC: 2.50178 cumulative IPC: 2.49745 (Simulation time: 45 hr 22 min 16 sec) 
 Total Blocks : 262144 Invalid Blocks : 0
Heartbeat CPU 6 instructions: 180000003 cycles: 72033064 heartbeat IPC: 2.51991 cumulative IPC: 2.49885 (Simulation time: 49 hr 58 min 56 sec) 
 Total Blocks : 262144 Invalid Blocks : 0
Heartbeat CPU 5 instructions: 180000003 cycles: 72033089 heartbeat IPC: 2.51989 cumulative IPC: 2.49885 (Simulation time: 49 hr 58 min 56 sec) 
 Total Blocks : 262144 Invalid Blocks : 0
Heartbeat CPU 7 instructions: 180000003 cycles: 72033732 heartbeat IPC: 2.52002 cumulative IPC: 2.49883 (Simulation time: 49 hr 58 min 59 sec) 
 Total Blocks : 262144 Invalid Blocks : 0
Heartbeat CPU 4 instructions: 180000003 cycles: 72034711 heartbeat IPC: 2.52004 cumulative IPC: 2.4988 (Simulation time: 49 hr 59 min 2 sec) 
 Total Blocks : 262144 Invalid Blocks : 0
Heartbeat CPU 3 instructions: 180000003 cycles: 72034808 heartbeat IPC: 2.51996 cumulative IPC: 2.49879 (Simulation time: 49 hr 59 min 2 sec) 
 Total Blocks : 262144 Invalid Blocks : 0
Heartbeat CPU 2 instructions: 180000003 cycles: 72034874 heartbeat IPC: 2.51993 cumulative IPC: 2.49879 (Simulation time: 49 hr 59 min 2 sec) 
 Total Blocks : 262144 Invalid Blocks : 0
Heartbeat CPU 1 instructions: 180000003 cycles: 72035014 heartbeat IPC: 2.52016 cumulative IPC: 2.49878 (Simulation time: 49 hr 59 min 3 sec) 
 Total Blocks : 262144 Invalid Blocks : 0
Heartbeat CPU 0 instructions: 180000003 cycles: 72037732 heartbeat IPC: 2.51996 cumulative IPC: 2.49869 (Simulation time: 49 hr 59 min 12 sec) 
 Total Blocks : 262144 Invalid Blocks : 0
Heartbeat CPU 5 instructions: 190000003 cycles: 76039501 heartbeat IPC: 2.496 cumulative IPC: 2.4987 (Simulation time: 55 hr 2 min 19 sec) 
 Total Blocks : 262144 Invalid Blocks : 0
Heartbeat CPU 6 instructions: 190000003 cycles: 76039572 heartbeat IPC: 2.49594 cumulative IPC: 2.4987 (Simulation time: 55 hr 2 min 20 sec) 
 Total Blocks : 262144 Invalid Blocks : 0
Heartbeat CPU 7 instructions: 190000003 cycles: 76040202 heartbeat IPC: 2.49596 cumulative IPC: 2.49868 (Simulation time: 55 hr 2 min 24 sec) 
 Total Blocks : 262144 Invalid Blocks : 0
Heartbeat CPU 4 instructions: 190000003 cycles: 76040793 heartbeat IPC: 2.4962 cumulative IPC: 2.49866 (Simulation time: 55 hr 2 min 26 sec) 
 Total Blocks : 262144 Invalid Blocks : 0
Heartbeat CPU 3 instructions: 190000003 cycles: 76040927 heartbeat IPC: 2.49618 cumulative IPC: 2.49865 (Simulation time: 55 hr 2 min 27 sec) 
 Total Blocks : 262144 Invalid Blocks : 0
Heartbeat CPU 2 instructions: 190000003 cycles: 76041012 heartbeat IPC: 2.49617 cumulative IPC: 2.49865 (Simulation time: 55 hr 2 min 29 sec) 
 Total Blocks : 262144 Invalid Blocks : 0
Heartbeat CPU 1 instructions: 190000003 cycles: 76041405 heartbeat IPC: 2.49601 cumulative IPC: 2.49864 (Simulation time: 55 hr 2 min 31 sec) 
 Total Blocks : 262144 Invalid Blocks : 0
Heartbeat CPU 0 instructions: 190000003 cycles: 76044416 heartbeat IPC: 2.49583 cumulative IPC: 2.49854 (Simulation time: 55 hr 2 min 51 sec) 
 Total Blocks : 262144 Invalid Blocks : 0
Heartbeat CPU 6 instructions: 200000003 cycles: 80033131 heartbeat IPC: 2.50403 cumulative IPC: 2.49897 (Simulation time: 60 hr 8 min 44 sec) 
 Total Blocks : 262144 Invalid Blocks : 0
Heartbeat CPU 5 instructions: 200000003 cycles: 80033308 heartbeat IPC: 2.50388 cumulative IPC: 2.49896 (Simulation time: 60 hr 8 min 45 sec) 
 Total Blocks : 262144 Invalid Blocks : 0
Heartbeat CPU 7 instructions: 200000003 cycles: 80033979 heartbeat IPC: 2.5039 cumulative IPC: 2.49894 (Simulation time: 60 hr 8 min 51 sec) 
 Total Blocks : 262144 Invalid Blocks : 0
Heartbeat CPU 3 instructions: 200000003 cycles: 80034453 heartbeat IPC: 2.50405 cumulative IPC: 2.49892 (Simulation time: 60 hr 8 min 55 sec) 
 Total Blocks : 262144 Invalid Blocks : 0
Heartbeat CPU 2 instructions: 200000003 cycles: 80034834 heartbeat IPC: 2.50387 cumulative IPC: 2.49891 (Simulation time: 60 hr 8 min 57 sec) 
 Total Blocks : 262144 Invalid Blocks : 0
Heartbeat CPU 4 instructions: 200000003 cycles: 80034923 heartbeat IPC: 2.50367 cumulative IPC: 2.49891 (Simulation time: 60 hr 8 min 58 sec) 
 Total Blocks : 262144 Invalid Blocks : 0
Heartbeat CPU 1 instructions: 200000003 cycles: 80035139 heartbeat IPC: 2.50392 cumulative IPC: 2.4989 (Simulation time: 60 hr 8 min 59 sec) 
 Total Blocks : 262144 Invalid Blocks : 0
Heartbeat CPU 0 instructions: 200000003 cycles: 80038393 heartbeat IPC: 2.50377 cumulative IPC: 2.4988 (Simulation time: 60 hr 9 min 16 sec) 
 Total Blocks : 262144 Invalid Blocks : 0

Warmup complete CPU 0 instructions: 200000003 cycles: 80038393 (Simulation time: 60 hr 9 min 16 sec) 
Warmup complete CPU 1 instructions: 200007588 cycles: 80038392 (Simulation time: 60 hr 9 min 16 sec) 
Warmup complete CPU 2 instructions: 200008449 cycles: 80038392 (Simulation time: 60 hr 9 min 16 sec) 
Warmup complete CPU 3 instructions: 200009366 cycles: 80038392 (Simulation time: 60 hr 9 min 16 sec) 
Warmup complete CPU 4 instructions: 200008169 cycles: 80038392 (Simulation time: 60 hr 9 min 16 sec) 
Warmup complete CPU 5 instructions: 200012026 cycles: 80038392 (Simulation time: 60 hr 9 min 16 sec) 
Warmup complete CPU 6 instructions: 200012565 cycles: 80038392 (Simulation time: 60 hr 9 min 16 sec) 
Warmup complete CPU 7 instructions: 200010726 cycles: 80038392 (Simulation time: 60 hr 9 min 16 sec) 

Heartbeat CPU 5 instructions: 210000003 cycles: 159062563 heartbeat IPC: 0.126535 cumulative IPC: 0.126391 (Simulation time: 68 hr 10 min 35 sec) 
 Total Blocks : 262144 Invalid Blocks : 0
Heartbeat CPU 1 instructions: 210000002 cycles: 159121406 heartbeat IPC: 0.126444 cumulative IPC: 0.126353 (Simulation time: 68 hr 10 min 55 sec) 
 Total Blocks : 262144 Invalid Blocks : 0
Heartbeat CPU 0 instructions: 210000002 cycles: 159150010 heartbeat IPC: 0.126404 cumulative IPC: 0.126404 (Simulation time: 68 hr 11 min 2 sec) 
 Total Blocks : 262144 Invalid Blocks : 0
Heartbeat CPU 6 instructions: 210000002 cycles: 159298299 heartbeat IPC: 0.126159 cumulative IPC: 0.126009 (Simulation time: 68 hr 11 min 44 sec) 
 Total Blocks : 262144 Invalid Blocks : 0
Heartbeat CPU 7 instructions: 210000002 cycles: 159433685 heartbeat IPC: 0.125945 cumulative IPC: 0.125817 (Simulation time: 68 hr 12 min 21 sec) 
 Total Blocks : 262144 Invalid Blocks : 0
Heartbeat CPU 4 instructions: 210000002 cycles: 159863251 heartbeat IPC: 0.125269 cumulative IPC: 0.125172 (Simulation time: 68 hr 14 min 25 sec) 
 Total Blocks : 262144 Invalid Blocks : 0
Heartbeat CPU 3 instructions: 210000002 cycles: 159983140 heartbeat IPC: 0.12508 cumulative IPC: 0.124969 (Simulation time: 68 hr 14 min 59 sec) 
 Total Blocks : 262144 Invalid Blocks : 0
Heartbeat CPU 2 instructions: 210000002 cycles: 160032097 heartbeat IPC: 0.125004 cumulative IPC: 0.124904 (Simulation time: 68 hr 15 min 12 sec) 
 Total Blocks : 262144 Invalid Blocks : 0
Heartbeat CPU 0 instructions: 220000000 cycles: 241526277 heartbeat IPC: 0.121394 cumulative IPC: 0.123848 (Simulation time: 77 hr 3 min 23 sec) 
 Total Blocks : 262144 Invalid Blocks : 0
Heartbeat CPU 5 instructions: 220000000 cycles: 241631260 heartbeat IPC: 0.121111 cumulative IPC: 0.123693 (Simulation time: 77 hr 4 min 6 sec) 
 Total Blocks : 262144 Invalid Blocks : 0
Heartbeat CPU 1 instructions: 220000000 cycles: 241686626 heartbeat IPC: 0.121116 cumulative IPC: 0.123679 (Simulation time: 77 hr 4 min 37 sec) 
 Total Blocks : 262144 Invalid Blocks : 0
Heartbeat CPU 6 instructions: 220000000 cycles: 242166955 heartbeat IPC: 0.120673 cumulative IPC: 0.123281 (Simulation time: 77 hr 8 min 19 sec) 
 Total Blocks : 262144 Invalid Blocks : 0
Heartbeat CPU 4 instructions: 220000000 cycles: 242272128 heartbeat IPC: 0.121346 cumulative IPC: 0.123229 (Simulation time: 77 hr 9 min 1 sec) 
 Total Blocks : 262144 Invalid Blocks : 0
Heartbeat CPU 7 instructions: 220000000 cycles: 242426445 heartbeat IPC: 0.120492 cumulative IPC: 0.123096 (Simulation time: 77 hr 10 min 10 sec) 
 Total Blocks : 262144 Invalid Blocks : 0
Heartbeat CPU 2 instructions: 220000000 cycles: 242868541 heartbeat IPC: 0.12072 cumulative IPC: 0.122775 (Simulation time: 77 hr 13 min 16 sec) 
 Total Blocks : 262144 Invalid Blocks : 0
Heartbeat CPU 3 instructions: 220000000 cycles: 243082854 heartbeat IPC: 0.120337 cumulative IPC: 0.122608 (Simulation time: 77 hr 14 min 57 sec) 
 Total Blocks : 262144 Invalid Blocks : 0
Heartbeat CPU 1 instructions: 230000003 cycles: 324761327 heartbeat IPC: 0.120374 cumulative IPC: 0.122557 (Simulation time: 86 hr 52 min 42 sec) 
 Total Blocks : 262144 Invalid Blocks : 0
Heartbeat CPU 0 instructions: 230000003 cycles: 325066309 heartbeat IPC: 0.119703 cumulative IPC: 0.122435 (Simulation time: 86 hr 54 min 57 sec) 
 Total Blocks : 262144 Invalid Blocks : 0
Heartbeat CPU 5 instructions: 230000003 cycles: 325079793 heartbeat IPC: 0.119834 cumulative IPC: 0.122379 (Simulation time: 86 hr 54 min 59 sec) 
 Total Blocks : 262144 Invalid Blocks : 0
Heartbeat CPU 6 instructions: 230000003 cycles: 325169714 heartbeat IPC: 0.120478 cumulative IPC: 0.122332 (Simulation time: 86 hr 55 min 36 sec) 
 Total Blocks : 262144 Invalid Blocks : 0
Heartbeat CPU 4 instructions: 230000003 cycles: 325396311 heartbeat IPC: 0.120302 cumulative IPC: 0.122237 (Simulation time: 86 hr 57 min 7 sec) 
 Total Blocks : 262144 Invalid Blocks : 0
Heartbeat CPU 7 instructions: 230000003 cycles: 325674506 heartbeat IPC: 0.120123 cumulative IPC: 0.122088 (Simulation time: 86 hr 58 min 54 sec) 
 Total Blocks : 262144 Invalid Blocks : 0
Heartbeat CPU 2 instructions: 230000003 cycles: 326678434 heartbeat IPC: 0.119318 cumulative IPC: 0.121601 (Simulation time: 87 hr 5 min 49 sec) 
 Total Blocks : 262144 Invalid Blocks : 0
Heartbeat CPU 3 instructions: 230000003 cycles: 327043171 heartbeat IPC: 0.119104 cumulative IPC: 0.121417 (Simulation time: 87 hr 8 min 32 sec) 
 Total Blocks : 262144 Invalid Blocks : 0
Heartbeat CPU 1 instructions: 240000003 cycles: 411691249 heartbeat IPC: 0.115035 cumulative IPC: 0.120585 (Simulation time: 96 hr 5 min 6 sec) 
 Total Blocks : 262144 Invalid Blocks : 0
Heartbeat CPU 6 instructions: 240000003 cycles: 411875566 heartbeat IPC: 0.115332 cumulative IPC: 0.120503 (Simulation time: 96 hr 6 min 4 sec) 
 Total Blocks : 262144 Invalid Blocks : 0
Heartbeat CPU 5 instructions: 240000003 cycles: 412060995 heartbeat IPC: 0.114967 cumulative IPC: 0.120438 (Simulation time: 96 hr 7 min 2 sec) 
 Total Blocks : 262144 Invalid Blocks : 0
Heartbeat CPU 4 instructions: 240000003 cycles: 412176493 heartbeat IPC: 0.115234 cumulative IPC: 0.120407 (Simulation time: 96 hr 7 min 38 sec) 
 Total Blocks : 262144 Invalid Blocks : 0
Heartbeat CPU 0 instructions: 240000003 cycles: 412291207 heartbeat IPC: 0.114646 cumulative IPC: 0.12039 (Simulation time: 96 hr 8 min 14 sec) 
 Total Blocks : 262144 Invalid Blocks : 0
Heartbeat CPU 7 instructions: 240000003 cycles: 412694200 heartbeat IPC: 0.114917 cumulative IPC: 0.120212 (Simulation time: 96 hr 10 min 26 sec) 
 Total Blocks : 262144 Invalid Blocks : 0
Heartbeat CPU 2 instructions: 240000003 cycles: 413799693 heartbeat IPC: 0.114783 cumulative IPC: 0.119821 (Simulation time: 96 hr 16 min 25 sec) 
 Total Blocks : 262144 Invalid Blocks : 0
Heartbeat CPU 3 instructions: 240000003 cycles: 414809938 heartbeat IPC: 0.113938 cumulative IPC: 0.119456 (Simulation time: 96 hr 21 min 45 sec) 
 Total Blocks : 262144 Invalid Blocks : 0
Heartbeat CPU 6 instructions: 250000003 cycles: 496689296 heartbeat IPC: 0.117905 cumulative IPC: 0.119974 (Simulation time: 103 hr 37 min 31 sec) 
 Total Blocks : 262144 Invalid Blocks : 0
Heartbeat CPU 5 instructions: 250000002 cycles: 496858745 heartbeat IPC: 0.117928 cumulative IPC: 0.119927 (Simulation time: 103 hr 38 min 25 sec) 
 Total Blocks : 262144 Invalid Blocks : 0
Heartbeat CPU 4 instructions: 250000003 cycles: 497054363 heartbeat IPC: 0.117816 cumulative IPC: 0.11988 (Simulation time: 103 hr 39 min 29 sec) 
 Total Blocks : 262144 Invalid Blocks : 0
Heartbeat CPU 0 instructions: 250000002 cycles: 497302620 heartbeat IPC: 0.117631 cumulative IPC: 0.119828 (Simulation time: 103 hr 40 min 45 sec) 
 Total Blocks : 262144 Invalid Blocks : 0
Heartbeat CPU 1 instructions: 250000002 cycles: 497442633 heartbeat IPC: 0.116616 cumulative IPC: 0.11977 (Simulation time: 103 hr 41 min 31 sec) 
 Total Blocks : 262144 Invalid Blocks : 0
Heartbeat CPU 7 instructions: 250000003 cycles: 497772936 heartbeat IPC: 0.117538 cumulative IPC: 0.119668 (Simulation time: 103 hr 43 min 17 sec) 
 Total Blocks : 262144 Invalid Blocks : 0
Heartbeat CPU 2 instructions: 250000002 cycles: 498698332 heartbeat IPC: 0.117788 cumulative IPC: 0.119408 (Simulation time: 103 hr 48 min 19 sec) 
 Total Blocks : 262144 Invalid Blocks : 0
Heartbeat CPU 3 instructions: 250000002 cycles: 500445702 heartbeat IPC: 0.116774 cumulative IPC: 0.11891 (Simulation time: 103 hr 57 min 56 sec) 
 Total Blocks : 262144 Invalid Blocks : 0
Heartbeat CPU 5 instructions: 260000002 cycles: 581024179 heartbeat IPC: 0.118814 cumulative IPC: 0.11974 (Simulation time: 111 hr 22 min 59 sec) 
 Total Blocks : 262144 Invalid Blocks : 0
Heartbeat CPU 4 instructions: 260000002 cycles: 581058143 heartbeat IPC: 0.119042 cumulative IPC: 0.119739 (Simulation time: 111 hr 23 min 10 sec) 
 Total Blocks : 262144 Invalid Blocks : 0
Heartbeat CPU 6 instructions: 260000002 cycles: 581276368 heartbeat IPC: 0.118221 cumulative IPC: 0.119679 (Simulation time: 111 hr 24 min 23 sec) 
 Total Blocks : 262144 Invalid Blocks : 0
Heartbeat CPU 1 instructions: 260000002 cycles: 582078698 heartbeat IPC: 0.118153 cumulative IPC: 0.119497 (Simulation time: 111 hr 28 min 57 sec) 
 Total Blocks : 262144 Invalid Blocks : 0
Heartbeat CPU 0 instructions: 260000002 cycles: 582215764 heartbeat IPC: 0.117767 cumulative IPC: 0.11948 (Simulation time: 111 hr 29 min 49 sec) 
 Total Blocks : 262144 Invalid Blocks : 0
Heartbeat CPU 7 instructions: 260000002 cycles: 582571494 heartbeat IPC: 0.117927 cumulative IPC: 0.119374 (Simulation time: 111 hr 31 min 45 sec) 
 Total Blocks : 262144 Invalid Blocks : 0
Heartbeat CPU 2 instructions: 260000002 cycles: 582658481 heartbeat IPC: 0.119104 cumulative IPC: 0.119358 (Simulation time: 111 hr 32 min 16 sec) 
 Total Blocks : 262144 Invalid Blocks : 0
Heartbeat CPU 3 instructions: 260000002 cycles: 585436922 heartbeat IPC: 0.117659 cumulative IPC: 0.1187 (Simulation time: 111 hr 48 min 23 sec) 
 Total Blocks : 262144 Invalid Blocks : 0
Heartbeat CPU 4 instructions: 270000000 cycles: 664379253 heartbeat IPC: 0.120018 cumulative IPC: 0.119779 (Simulation time: 119 hr 13 min 42 sec) 
 Total Blocks : 262144 Invalid Blocks : 0
Heartbeat CPU 6 instructions: 270000000 cycles: 664702616 heartbeat IPC: 0.119866 cumulative IPC: 0.119705 (Simulation time: 119 hr 15 min 28 sec) 
 Total Blocks : 262144 Invalid Blocks : 0
Heartbeat CPU 5 instructions: 270000000 cycles: 664746291 heartbeat IPC: 0.119443 cumulative IPC: 0.119697 (Simulation time: 119 hr 15 min 42 sec) 
 Total Blocks : 262144 Invalid Blocks : 0
Heartbeat CPU 0 instructions: 270000000 cycles: 665539576 heartbeat IPC: 0.120014 cumulative IPC: 0.119556 (Simulation time: 119 hr 20 min 0 sec) 
 Total Blocks : 262144 Invalid Blocks : 0
Heartbeat CPU 1 instructions: 270000000 cycles: 665554240 heartbeat IPC: 0.119796 cumulative IPC: 0.11954 (Simulation time: 119 hr 20 min 4 sec) 
 Total Blocks : 262144 Invalid Blocks : 0
Heartbeat CPU 7 instructions: 270000000 cycles: 665761714 heartbeat IPC: 0.120206 cumulative IPC: 0.119492 (Simulation time: 119 hr 21 min 16 sec) 
 Total Blocks : 262144 Invalid Blocks : 0
Heartbeat CPU 2 instructions: 270000000 cycles: 666064585 heartbeat IPC: 0.119895 cumulative IPC: 0.119434 (Simulation time: 119 hr 22 min 55 sec) 
 Total Blocks : 262144 Invalid Blocks : 0
Heartbeat CPU 3 instructions: 270000000 cycles: 668678282 heartbeat IPC: 0.120133 cumulative IPC: 0.118902 (Simulation time: 119 hr 37 min 18 sec) 
 Total Blocks : 262144 Invalid Blocks : 0
Heartbeat CPU 4 instructions: 280000000 cycles: 745158958 heartbeat IPC: 0.123793 cumulative IPC: 0.120267 (Simulation time: 127 hr 1 min 42 sec) 
 Total Blocks : 262144 Invalid Blocks : 0
Heartbeat CPU 6 instructions: 280000000 cycles: 745379889 heartbeat IPC: 0.123951 cumulative IPC: 0.12022 (Simulation time: 127 hr 2 min 56 sec) 
 Total Blocks : 262144 Invalid Blocks : 0
Heartbeat CPU 1 instructions: 280000000 cycles: 746185845 heartbeat IPC: 0.124021 cumulative IPC: 0.120082 (Simulation time: 127 hr 7 min 43 sec) 
 Total Blocks : 262144 Invalid Blocks : 0
Heartbeat CPU 0 instructions: 280000000 cycles: 746198653 heartbeat IPC: 0.123979 cumulative IPC: 0.120091 (Simulation time: 127 hr 7 min 49 sec) 
 Total Blocks : 262144 Invalid Blocks : 0
Heartbeat CPU 5 instructions: 280000000 cycles: 746519933 heartbeat IPC: 0.122289 cumulative IPC: 0.120015 (Simulation time: 127 hr 9 min 42 sec) 
 Total Blocks : 262144 Invalid Blocks : 0
Heartbeat CPU 7 instructions: 280000000 cycles: 746753661 heartbeat IPC: 0.123469 cumulative IPC: 0.119975 (Simulation time: 127 hr 11 min 7 sec) 
 Total Blocks : 262144 Invalid Blocks : 0
Heartbeat CPU 2 instructions: 280000000 cycles: 747353974 heartbeat IPC: 0.123017 cumulative IPC: 0.119871 (Simulation time: 127 hr 14 min 35 sec) 
 Total Blocks : 262144 Invalid Blocks : 0
Heartbeat CPU 3 instructions: 280000000 cycles: 749938231 heartbeat IPC: 0.123062 cumulative IPC: 0.119407 (Simulation time: 127 hr 29 min 36 sec) 
 Total Blocks : 262144 Invalid Blocks : 0
Heartbeat CPU 4 instructions: 290000003 cycles: 825215451 heartbeat IPC: 0.124912 cumulative IPC: 0.120766 (Simulation time: 135 hr 0 min 22 sec) 
 Total Blocks : 262144 Invalid Blocks : 0
Heartbeat CPU 6 instructions: 290000003 cycles: 825414111 heartbeat IPC: 0.124947 cumulative IPC: 0.120728 (Simulation time: 135 hr 1 min 30 sec) 
 Total Blocks : 262144 Invalid Blocks : 0
Heartbeat CPU 1 instructions: 290000003 cycles: 826294284 heartbeat IPC: 0.124831 cumulative IPC: 0.120592 (Simulation time: 135 hr 6 min 53 sec) 
 Total Blocks : 262144 Invalid Blocks : 0
Heartbeat CPU 0 instructions: 290000002 cycles: 826320829 heartbeat IPC: 0.124809 cumulative IPC: 0.120598 (Simulation time: 135 hr 7 min 4 sec) 
 Total Blocks : 262144 Invalid Blocks : 0
Heartbeat CPU 7 instructions: 290000000 cycles: 827436641 heartbeat IPC: 0.123942 cumulative IPC: 0.120403 (Simulation time: 135 hr 13 min 44 sec) 
 Total Blocks : 262144 Invalid Blocks : 0
Heartbeat CPU 5 instructions: 290000003 cycles: 827457410 heartbeat IPC: 0.123552 cumulative IPC: 0.120398 (Simulation time: 135 hr 13 min 52 sec) 
 Total Blocks : 262144 Invalid Blocks : 0
Heartbeat CPU 2 instructions: 290000000 cycles: 828086234 heartbeat IPC: 0.123866 cumulative IPC: 0.120302 (Simulation time: 135 hr 17 min 43 sec) 
 Total Blocks : 262144 Invalid Blocks : 0
Heartbeat CPU 3 instructions: 290000003 cycles: 830554357 heartbeat IPC: 0.124045 cumulative IPC: 0.119905 (Simulation time: 135 hr 32 min 43 sec) 
 Total Blocks : 262144 Invalid Blocks : 0
Heartbeat CPU 6 instructions: 300000003 cycles: 905672494 heartbeat IPC: 0.124598 cumulative IPC: 0.121104 (Simulation time: 143 hr 11 min 51 sec) 
 Total Blocks : 262144 Invalid Blocks : 0
Heartbeat CPU 4 instructions: 300000003 cycles: 905864530 heartbeat IPC: 0.123994 cumulative IPC: 0.121081 (Simulation time: 143 hr 13 min 5 sec) 
 Total Blocks : 262144 Invalid Blocks : 0
Heartbeat CPU 1 instructions: 300000003 cycles: 906596182 heartbeat IPC: 0.12453 cumulative IPC: 0.120974 (Simulation time: 143 hr 17 min 38 sec) 
 Total Blocks : 262144 Invalid Blocks : 0
Heartbeat CPU 0 instructions: 300000003 cycles: 906709586 heartbeat IPC: 0.124396 cumulative IPC: 0.120967 (Simulation time: 143 hr 18 min 19 sec) 
 Total Blocks : 262144 Invalid Blocks : 0
Heartbeat CPU 5 instructions: 300000003 cycles: 907738756 heartbeat IPC: 0.124562 cumulative IPC: 0.120802 (Simulation time: 143 hr 24 min 42 sec) 
 Total Blocks : 262144 Invalid Blocks : 0
Heartbeat CPU 7 instructions: 300000003 cycles: 908094603 heartbeat IPC: 0.12398 cumulative IPC: 0.120752 (Simulation time: 143 hr 26 min 49 sec) 
 Total Blocks : 262144 Invalid Blocks : 0
Heartbeat CPU 2 instructions: 300000003 cycles: 908270095 heartbeat IPC: 0.124713 cumulative IPC: 0.120729 (Simulation time: 143 hr 27 min 57 sec) 
 Total Blocks : 262144 Invalid Blocks : 0
Heartbeat CPU 3 instructions: 300000003 cycles: 911068016 heartbeat IPC: 0.124203 cumulative IPC: 0.120321 (Simulation time: 143 hr 45 min 11 sec) 
 Total Blocks : 262144 Invalid Blocks : 0
Heartbeat CPU 6 instructions: 310000002 cycles: 985366335 heartbeat IPC: 0.12548 cumulative IPC: 0.121489 (Simulation time: 151 hr 29 min 17 sec) 
 Total Blocks : 262144 Invalid Blocks : 0
Heartbeat CPU 4 instructions: 310000002 cycles: 986233720 heartbeat IPC: 0.124426 cumulative IPC: 0.121378 (Simulation time: 151 hr 34 min 48 sec) 
 Total Blocks : 262144 Invalid Blocks : 0
Heartbeat CPU 1 instructions: 310000002 cycles: 986613600 heartbeat IPC: 0.124973 cumulative IPC: 0.121327 (Simulation time: 151 hr 37 min 14 sec) 
 Total Blocks : 262144 Invalid Blocks : 0
Heartbeat CPU 0 instructions: 310000002 cycles: 986875403 heartbeat IPC: 0.124741 cumulative IPC: 0.121301 (Simulation time: 151 hr 38 min 55 sec) 
 Total Blocks : 262144 Invalid Blocks : 0
Heartbeat CPU 5 instructions: 310000002 cycles: 987522307 heartbeat IPC: 0.125339 cumulative IPC: 0.121201 (Simulation time: 151 hr 43 min 0 sec) 
 Total Blocks : 262144 Invalid Blocks : 0
Heartbeat CPU 2 instructions: 310000002 cycles: 987991931 heartbeat IPC: 0.125436 cumulative IPC: 0.121142 (Simulation time: 151 hr 45 min 57 sec) 
 Total Blocks : 262144 Invalid Blocks : 0
Heartbeat CPU 7 instructions: 310000002 cycles: 988534903 heartbeat IPC: 0.124316 cumulative IPC: 0.121067 (Simulation time: 151 hr 49 min 18 sec) 
 Total Blocks : 262144 Invalid Blocks : 0
Heartbeat CPU 3 instructions: 310000002 cycles: 991388378 heartbeat IPC: 0.124501 cumulative IPC: 0.12069 (Simulation time: 152 hr 7 min 41 sec) 
 Total Blocks : 262144 Invalid Blocks : 0
Heartbeat CPU 6 instructions: 320000002 cycles: 1064081732 heartbeat IPC: 0.12704 cumulative IPC: 0.121933 (Simulation time: 159 hr 52 min 14 sec) 
 Total Blocks : 262144 Invalid Blocks : 0
Heartbeat CPU 4 instructions: 320000002 cycles: 1065040869 heartbeat IPC: 0.126892 cumulative IPC: 0.121819 (Simulation time: 159 hr 58 min 32 sec) 
 Total Blocks : 262144 Invalid Blocks : 0
Heartbeat CPU 1 instructions: 320000002 cycles: 1065086523 heartbeat IPC: 0.127432 cumulative IPC: 0.121814 (Simulation time: 159 hr 58 min 51 sec) 
 Total Blocks : 262144 Invalid Blocks : 0
Heartbeat CPU 0 instructions: 320000002 cycles: 1065658907 heartbeat IPC: 0.12693 cumulative IPC: 0.121751 (Simulation time: 160 hr 2 min 32 sec) 
 Total Blocks : 262144 Invalid Blocks : 0
Heartbeat CPU 5 instructions: 320000000 cycles: 1066129551 heartbeat IPC: 0.127215 cumulative IPC: 0.12168 (Simulation time: 160 hr 5 min 35 sec) 
 Total Blocks : 262144 Invalid Blocks : 0
Heartbeat CPU 2 instructions: 320000000 cycles: 1066452287 heartbeat IPC: 0.127453 cumulative IPC: 0.121644 (Simulation time: 160 hr 7 min 41 sec) 
 Total Blocks : 262144 Invalid Blocks : 0
Heartbeat CPU 7 instructions: 320000000 cycles: 1066951853 heartbeat IPC: 0.127523 cumulative IPC: 0.12158 (Simulation time: 160 hr 10 min 59 sec) 
 Total Blocks : 262144 Invalid Blocks : 0
Heartbeat CPU 3 instructions: 320000000 cycles: 1070286987 heartbeat IPC: 0.126745 cumulative IPC: 0.121172 (Simulation time: 160 hr 32 min 45 sec) 
 Total Blocks : 262144 Invalid Blocks : 0
Heartbeat CPU 6 instructions: 330000000 cycles: 1141944892 heartbeat IPC: 0.12843 cumulative IPC: 0.122409 (Simulation time: 168 hr 19 min 41 sec) 
 Total Blocks : 262144 Invalid Blocks : 0
Heartbeat CPU 4 instructions: 330000000 cycles: 1142985122 heartbeat IPC: 0.128297 cumulative IPC: 0.122294 (Simulation time: 168 hr 26 min 18 sec) 
 Total Blocks : 262144 Invalid Blocks : 0
Heartbeat CPU 1 instructions: 330000000 cycles: 1143169507 heartbeat IPC: 0.128069 cumulative IPC: 0.122273 (Simulation time: 168 hr 27 min 26 sec) 
 Total Blocks : 262144 Invalid Blocks : 0
Heartbeat CPU 5 instructions: 330000000 cycles: 1143683996 heartbeat IPC: 0.128942 cumulative IPC: 0.12221 (Simulation time: 168 hr 30 min 42 sec) 
 Total Blocks : 262144 Invalid Blocks : 0
Heartbeat CPU 0 instructions: 330000000 cycles: 1143874799 heartbeat IPC: 0.127851 cumulative IPC: 0.122199 (Simulation time: 168 hr 31 min 56 sec) 
 Total Blocks : 262144 Invalid Blocks : 0
Heartbeat CPU 2 instructions: 330000000 cycles: 1144387536 heartbeat IPC: 0.128312 cumulative IPC: 0.122132 (Simulation time: 168 hr 35 min 11 sec) 
 Total Blocks : 262144 Invalid Blocks : 0
Heartbeat CPU 7 instructions: 330000000 cycles: 1144619880 heartbeat IPC: 0.128753 cumulative IPC: 0.122104 (Simulation time: 168 hr 36 min 41 sec) 
 Total Blocks : 262144 Invalid Blocks : 0
Heartbeat CPU 3 instructions: 330000000 cycles: 1148743459 heartbeat IPC: 0.127459 cumulative IPC: 0.121634 (Simulation time: 169 hr 3 min 48 sec) 
 Total Blocks : 262144 Invalid Blocks : 0
Heartbeat CPU 6 instructions: 340000002 cycles: 1219816825 heartbeat IPC: 0.128416 cumulative IPC: 0.12282 (Simulation time: 177 hr 0 min 10 sec) 
 Total Blocks : 262144 Invalid Blocks : 0
Heartbeat CPU 4 instructions: 340000001 cycles: 1221325207 heartbeat IPC: 0.127649 cumulative IPC: 0.122661 (Simulation time: 177 hr 10 min 19 sec) 
 Total Blocks : 262144 Invalid Blocks : 0
Heartbeat CPU 5 instructions: 340000001 cycles: 1221598705 heartbeat IPC: 0.128345 cumulative IPC: 0.122629 (Simulation time: 177 hr 12 min 8 sec) 
 Total Blocks : 262144 Invalid Blocks : 0
Heartbeat CPU 1 instructions: 340000001 cycles: 1221835761 heartbeat IPC: 0.127119 cumulative IPC: 0.122607 (Simulation time: 177 hr 13 min 42 sec) 
 Total Blocks : 262144 Invalid Blocks : 0
Heartbeat CPU 2 instructions: 340000001 cycles: 1222278320 heartbeat IPC: 0.128385 cumulative IPC: 0.122559 (Simulation time: 177 hr 16 min 45 sec) 
 Total Blocks : 262144 Invalid Blocks : 0
Heartbeat CPU 7 instructions: 340000001 cycles: 1222565567 heartbeat IPC: 0.128294 cumulative IPC: 0.122526 (Simulation time: 177 hr 18 min 40 sec) 
 Total Blocks : 262144 Invalid Blocks : 0
Heartbeat CPU 0 instructions: 340000001 cycles: 1222718374 heartbeat IPC: 0.126833 cumulative IPC: 0.122519 (Simulation time: 177 hr 19 min 40 sec) 
 Total Blocks : 262144 Invalid Blocks : 0
Heartbeat CPU 3 instructions: 340000001 cycles: 1227351400 heartbeat IPC: 0.127214 cumulative IPC: 0.122016 (Simulation time: 177 hr 51 min 6 sec) 
 Total Blocks : 262144 Invalid Blocks : 0
Heartbeat CPU 6 instructions: 350000000 cycles: 1300643440 heartbeat IPC: 0.123722 cumulative IPC: 0.12288 (Simulation time: 186 hr 16 min 1 sec) 
 Total Blocks : 262144 Invalid Blocks : 0
Heartbeat CPU 5 instructions: 350000000 cycles: 1302304623 heartbeat IPC: 0.123907 cumulative IPC: 0.122713 (Simulation time: 186 hr 27 min 43 sec) 
 Total Blocks : 262144 Invalid Blocks : 0
Heartbeat CPU 4 instructions: 350000000 cycles: 1302363376 heartbeat IPC: 0.123399 cumulative IPC: 0.12271 (Simulation time: 186 hr 28 min 3 sec) 
 Total Blocks : 262144 Invalid Blocks : 0
Heartbeat CPU 2 instructions: 350000000 cycles: 1302959219 heartbeat IPC: 0.123945 cumulative IPC: 0.12265 (Simulation time: 186 hr 32 min 9 sec) 
 Total Blocks : 262144 Invalid Blocks : 0
Heartbeat CPU 7 instructions: 350000000 cycles: 1302992410 heartbeat IPC: 0.124337 cumulative IPC: 0.122645 (Simulation time: 186 hr 32 min 25 sec) 
 Total Blocks : 262144 Invalid Blocks : 0
Heartbeat CPU 1 instructions: 350000000 cycles: 1303107259 heartbeat IPC: 0.123044 cumulative IPC: 0.122636 (Simulation time: 186 hr 33 min 17 sec) 
 Total Blocks : 262144 Invalid Blocks : 0
Heartbeat CPU 0 instructions: 350000000 cycles: 1303487582 heartbeat IPC: 0.12381 cumulative IPC: 0.122604 (Simulation time: 186 hr 35 min 57 sec) 
 Total Blocks : 262144 Invalid Blocks : 0
Heartbeat CPU 3 instructions: 350000000 cycles: 1308610105 heartbeat IPC: 0.123064 cumulative IPC: 0.122085 (Simulation time: 187 hr 11 min 54 sec) 
 Total Blocks : 262144 Invalid Blocks : 0
Heartbeat CPU 6 instructions: 360000000 cycles: 1381355505 heartbeat IPC: 0.123897 cumulative IPC: 0.122943 (Simulation time: 195 hr 44 min 35 sec) 
 Total Blocks : 262144 Invalid Blocks : 0
Heartbeat CPU 4 instructions: 360000002 cycles: 1383393064 heartbeat IPC: 0.123412 cumulative IPC: 0.122754 (Simulation time: 195 hr 59 min 16 sec) 
 Total Blocks : 262144 Invalid Blocks : 0
Heartbeat CPU 5 instructions: 360000002 cycles: 1383706044 heartbeat IPC: 0.122848 cumulative IPC: 0.122721 (Simulation time: 196 hr 1 min 37 sec) 
 Total Blocks : 262144 Invalid Blocks : 0
Heartbeat CPU 2 instructions: 360000002 cycles: 1383908224 heartbeat IPC: 0.123535 cumulative IPC: 0.122705 (Simulation time: 196 hr 3 min 7 sec) 
 Total Blocks : 262144 Invalid Blocks : 0
Heartbeat CPU 1 instructions: 360000002 cycles: 1383931466 heartbeat IPC: 0.123725 cumulative IPC: 0.122704 (Simulation time: 196 hr 3 min 17 sec) 
 Total Blocks : 262144 Invalid Blocks : 0
Heartbeat CPU 7 instructions: 360000002 cycles: 1384187632 heartbeat IPC: 0.12316 cumulative IPC: 0.122677 (Simulation time: 196 hr 5 min 8 sec) 
 Total Blocks : 262144 Invalid Blocks : 0
Heartbeat CPU 0 instructions: 360000002 cycles: 1384347594 heartbeat IPC: 0.123671 cumulative IPC: 0.12267 (Simulation time: 196 hr 6 min 22 sec) 
 Total Blocks : 262144 Invalid Blocks : 0
Heartbeat CPU 3 instructions: 360000002 cycles: 1389761703 heartbeat IPC: 0.123226 cumulative IPC: 0.122156 (Simulation time: 196 hr 45 min 22 sec) 
 Total Blocks : 262144 Invalid Blocks : 0
Heartbeat CPU 6 instructions: 370000000 cycles: 1463412965 heartbeat IPC: 0.121866 cumulative IPC: 0.122879 (Simulation time: 205 hr 35 min 15 sec) 
 Total Blocks : 262144 Invalid Blocks : 0
Heartbeat CPU 4 instructions: 370000000 cycles: 1465597239 heartbeat IPC: 0.121648 cumulative IPC: 0.122688 (Simulation time: 205 hr 50 min 57 sec) 
 Total Blocks : 262144 Invalid Blocks : 0
Heartbeat CPU 2 instructions: 370000000 cycles: 1466223882 heartbeat IPC: 0.121484 cumulative IPC: 0.122633 (Simulation time: 205 hr 55 min 32 sec) 
 Total Blocks : 262144 Invalid Blocks : 0
Heartbeat CPU 5 instructions: 370000000 cycles: 1466405967 heartbeat IPC: 0.120919 cumulative IPC: 0.122614 (Simulation time: 205 hr 56 min 49 sec) 
 Total Blocks : 262144 Invalid Blocks : 0
Heartbeat CPU 0 instructions: 370000000 cycles: 1466498333 heartbeat IPC: 0.121727 cumulative IPC: 0.122614 (Simulation time: 205 hr 57 min 29 sec) 
 Total Blocks : 262144 Invalid Blocks : 0
Heartbeat CPU 7 instructions: 370000000 cycles: 1466575145 heartbeat IPC: 0.121378 cumulative IPC: 0.1226 (Simulation time: 205 hr 58 min 4 sec) 
 Total Blocks : 262144 Invalid Blocks : 0
Heartbeat CPU 1 instructions: 370000000 cycles: 1466590397 heartbeat IPC: 0.120979 cumulative IPC: 0.122601 (Simulation time: 205 hr 58 min 13 sec) 
 Total Blocks : 262144 Invalid Blocks : 0
Heartbeat CPU 3 instructions: 370000000 cycles: 1472538941 heartbeat IPC: 0.120806 cumulative IPC: 0.122076 (Simulation time: 206 hr 40 min 57 sec) 
 Total Blocks : 262144 Invalid Blocks : 0
Heartbeat CPU 6 instructions: 380000001 cycles: 1545111256 heartbeat IPC: 0.122402 cumulative IPC: 0.122852 (Simulation time: 215 hr 32 min 48 sec) 
 Total Blocks : 262144 Invalid Blocks : 0
Heartbeat CPU 4 instructions: 380000001 cycles: 1546995614 heartbeat IPC: 0.122853 cumulative IPC: 0.122697 (Simulation time: 215 hr 46 min 6 sec) 
 Total Blocks : 262144 Invalid Blocks : 0
Heartbeat CPU 2 instructions: 380000001 cycles: 1547638002 heartbeat IPC: 0.122829 cumulative IPC: 0.122644 (Simulation time: 215 hr 50 min 42 sec) 
 Total Blocks : 262144 Invalid Blocks : 0
Heartbeat CPU 0 instructions: 380000001 cycles: 1547823446 heartbeat IPC: 0.122963 cumulative IPC: 0.122634 (Simulation time: 215 hr 52 min 2 sec) 
 Total Blocks : 262144 Invalid Blocks : 0
Heartbeat CPU 1 instructions: 380000001 cycles: 1548060216 heartbeat IPC: 0.122745 cumulative IPC: 0.122609 (Simulation time: 215 hr 53 min 49 sec) 
 Total Blocks : 262144 Invalid Blocks : 0
Heartbeat CPU 5 instructions: 380000001 cycles: 1548171011 heartbeat IPC: 0.122302 cumulative IPC: 0.122597 (Simulation time: 215 hr 54 min 38 sec) 
 Total Blocks : 262144 Invalid Blocks : 0
Heartbeat CPU 7 instructions: 380000001 cycles: 1548187848 heartbeat IPC: 0.12253 cumulative IPC: 0.122596 (Simulation time: 215 hr 54 min 44 sec) 
 Total Blocks : 262144 Invalid Blocks : 0
Heartbeat CPU 3 instructions: 380000001 cycles: 1553917676 heartbeat IPC: 0.122882 cumulative IPC: 0.12212 (Simulation time: 216 hr 36 min 35 sec) 
 Total Blocks : 262144 Invalid Blocks : 0
Heartbeat CPU 6 instructions: 390000003 cycles: 1624614925 heartbeat IPC: 0.12578 cumulative IPC: 0.123003 (Simulation time: 225 hr 25 min 58 sec) 
 Total Blocks : 262144 Invalid Blocks : 0
Heartbeat CPU 4 instructions: 390000000 cycles: 1626337223 heartbeat IPC: 0.126037 cumulative IPC: 0.122869 (Simulation time: 225 hr 38 min 57 sec) 
 Total Blocks : 262144 Invalid Blocks : 0
Heartbeat CPU 2 instructions: 390000000 cycles: 1626984698 heartbeat IPC: 0.126029 cumulative IPC: 0.122817 (Simulation time: 225 hr 44 min 5 sec) 
 Total Blocks : 262144 Invalid Blocks : 0
Heartbeat CPU 0 instructions: 390000000 cycles: 1627130248 heartbeat IPC: 0.126093 cumulative IPC: 0.122811 (Simulation time: 225 hr 45 min 7 sec) 
 Total Blocks : 262144 Invalid Blocks : 0
Heartbeat CPU 1 instructions: 390000000 cycles: 1627412516 heartbeat IPC: 0.12602 cumulative IPC: 0.122784 (Simulation time: 225 hr 47 min 17 sec) 
 Total Blocks : 262144 Invalid Blocks : 0
Heartbeat CPU 7 instructions: 390000000 cycles: 1628678602 heartbeat IPC: 0.124238 cumulative IPC: 0.122681 (Simulation time: 225 hr 56 min 48 sec) 
 Total Blocks : 262144 Invalid Blocks : 0
Heartbeat CPU 5 instructions: 390000000 cycles: 1628892755 heartbeat IPC: 0.123882 cumulative IPC: 0.122664 (Simulation time: 225 hr 58 min 26 sec) 
 Total Blocks : 262144 Invalid Blocks : 0
Heartbeat CPU 3 instructions: 390000000 cycles: 1633915127 heartbeat IPC: 0.125004 cumulative IPC: 0.122269 (Simulation time: 226 hr 36 min 26 sec) 
 Total Blocks : 262144 Invalid Blocks : 0
Heartbeat CPU 6 instructions: 400000000 cycles: 1707076110 heartbeat IPC: 0.121269 cumulative IPC: 0.122915 (Simulation time: 235 hr 51 min 42 sec) 
 Total Blocks : 262144 Invalid Blocks : 0
Finished CPU 6 instructions: 200000000 cycles: 1627168891 cumulative IPC: 0.122913 (Simulation time: 235 hr 52 min 42 sec) 
Heartbeat CPU 4 instructions: 400000000 cycles: 1708782088 heartbeat IPC: 0.121293 cumulative IPC: 0.122789 (Simulation time: 236 hr 4 min 48 sec) 
 Total Blocks : 262144 Invalid Blocks : 0
Finished CPU 4 instructions: 200000000 cycles: 1628815253 cumulative IPC: 0.122789 (Simulation time: 236 hr 5 min 19 sec) 
Heartbeat CPU 2 instructions: 400000000 cycles: 1709121982 heartbeat IPC: 0.121747 cumulative IPC: 0.122763 (Simulation time: 236 hr 7 min 27 sec) 
 Total Blocks : 262144 Invalid Blocks : 0
Finished CPU 2 instructions: 200000000 cycles: 1629163234 cumulative IPC: 0.122762 (Simulation time: 236 hr 8 min 3 sec) 
Heartbeat CPU 0 instructions: 400000000 cycles: 1709255841 heartbeat IPC: 0.121765 cumulative IPC: 0.122758 (Simulation time: 236 hr 8 min 27 sec) 
 Total Blocks : 262144 Invalid Blocks : 0
Finished CPU 0 instructions: 200000001 cycles: 1629217449 cumulative IPC: 0.122758 (Simulation time: 236 hr 8 min 27 sec) 
Heartbeat CPU 1 instructions: 400000000 cycles: 1709405658 heartbeat IPC: 0.121961 cumulative IPC: 0.122742 (Simulation time: 236 hr 9 min 41 sec) 
 Total Blocks : 262144 Invalid Blocks : 0
Finished CPU 1 instructions: 200000002 cycles: 1629419171 cumulative IPC: 0.122743 (Simulation time: 236 hr 10 min 5 sec) 
Heartbeat CPU 7 instructions: 400000000 cycles: 1711365689 heartbeat IPC: 0.120938 cumulative IPC: 0.122593 (Simulation time: 236 hr 24 min 51 sec) 
 Total Blocks : 262144 Invalid Blocks : 0
Finished CPU 7 instructions: 200000000 cycles: 1631438593 cumulative IPC: 0.122591 (Simulation time: 236 hr 25 min 43 sec) 
Heartbeat CPU 5 instructions: 400000000 cycles: 1711763006 heartbeat IPC: 0.120671 cumulative IPC: 0.122562 (Simulation time: 236 hr 27 min 52 sec) 
 Total Blocks : 262144 Invalid Blocks : 0
Finished CPU 5 instructions: 200000002 cycles: 1631846875 cumulative IPC: 0.122561 (Simulation time: 236 hr 28 min 52 sec) 
Heartbeat CPU 3 instructions: 400000000 cycles: 1716435302 heartbeat IPC: 0.121182 cumulative IPC: 0.122214 (Simulation time: 237 hr 3 min 59 sec) 
 Total Blocks : 262144 Invalid Blocks : 0
Finished CPU 3 instructions: 200000001 cycles: 1636489999 cumulative IPC: 0.122213 (Simulation time: 237 hr 4 min 44 sec) 

CPU 0 Branch Prediction Accuracy: 94.9561% MPKI: 0.908333 Average ROB Occupancy at Mispredict: 273.563

CPU 1 Branch Prediction Accuracy: 94.9561% MPKI: 0.908308 Average ROB Occupancy at Mispredict: 273.547

CPU 2 Branch Prediction Accuracy: 94.956% MPKI: 0.90831 Average ROB Occupancy at Mispredict: 273.551

CPU 3 Branch Prediction Accuracy: 94.9579% MPKI: 0.907692 Average ROB Occupancy at Mispredict: 273.568

CPU 4 Branch Prediction Accuracy: 94.9558% MPKI: 0.90835 Average ROB Occupancy at Mispredict: 273.558

CPU 5 Branch Prediction Accuracy: 94.9567% MPKI: 0.908066 Average ROB Occupancy at Mispredict: 273.555

CPU 6 Branch Prediction Accuracy: 94.9547% MPKI: 0.908587 Average ROB Occupancy at Mispredict: 273.545

CPU 7 Branch Prediction Accuracy: 94.9568% MPKI: 0.908053 Average ROB Occupancy at Mispredict: 273.6

ChampSim completed all CPUs

Total Simulation Statistics (not including warmup)

CPU 0 cumulative IPC: 0.122704 instructions: 200804064 cycles: 1636489998
ITLB TOTAL     ACCESS: 30806540  HIT: 30806540  MISS:     0  HIT %:   100  MISS %:     0  AVERAGE MISS PENALTY: 0
ITLB LOAD      ACCESS: 30806540  HIT: 30806540  MISS:     0  HIT %:   100  MISS %:     0  AVERAGE MISS PENALTY: 0
ITLB RFO       ACCESS:     0  HIT:     0  MISS:     0  HIT %:     0  MISS %:     0  AVERAGE MISS PENALTY: 0
ITLB PREFETCH  ACCESS:     0  HIT:     0  MISS:     0  HIT %:     0  MISS %:     0  AVERAGE MISS PENALTY: 0
ITLB WRITEBACK ACCESS:     0  HIT:     0  MISS:     0  HIT %:     0  MISS %:     0  AVERAGE MISS PENALTY: 0

DTLB TOTAL     ACCESS: 40560409  HIT: 40284087  MISS: 276322  HIT %: 99.3187  MISS %: 0.68126  AVERAGE MISS PENALTY: 87.2183
DTLB LOAD      ACCESS: 19618811  HIT: 19581314  MISS: 37497  HIT %: 99.8089  MISS %: 0.191128  AVERAGE MISS PENALTY: 109.002
DTLB RFO       ACCESS: 20941598  HIT: 20702773  MISS: 238825  HIT %: 98.8596  MISS %: 1.14043  AVERAGE MISS PENALTY: 83.798
DTLB PREFETCH  ACCESS:     0  HIT:     0  MISS:     0  HIT %:     0  MISS %:     0  AVERAGE MISS PENALTY: 0
DTLB WRITEBACK ACCESS:     0  HIT:     0  MISS:     0  HIT %:     0  MISS %:     0  AVERAGE MISS PENALTY: 0

STLB TOTAL     ACCESS: 276322  HIT: 126385  MISS: 149937  HIT %: 45.7383  MISS %: 54.2617  AVERAGE MISS PENALTY: 100
STLB LOAD      ACCESS: 37497  HIT:     0  MISS: 37497  HIT %:     0  MISS %:   100  AVERAGE MISS PENALTY: 100
STLB RFO       ACCESS: 238825  HIT: 126385  MISS: 112440  HIT %: 52.9195  MISS %: 47.0805  AVERAGE MISS PENALTY: 100
STLB PREFETCH  ACCESS:     0  HIT:     0  MISS:     0  HIT %:     0  MISS %:     0  AVERAGE MISS PENALTY: 0
STLB WRITEBACK ACCESS:     0  HIT:     0  MISS:     0  HIT %:     0  MISS %:     0  AVERAGE MISS PENALTY: 0

L1D TOTAL     ACCESS: 58923347  HIT: 43083364  MISS: 15839983  HIT %: 73.1176  MISS %: 26.8824  AVERAGE MISS PENALTY: 3.40046e+07
L1D LOAD      ACCESS: 16589528  HIT: 15017520  MISS: 1572008  HIT %: 90.5241  MISS %: 9.47591  AVERAGE MISS PENALTY: 3.42627e+08
L1D RFO       ACCESS: 34877790  HIT: 21447019  MISS: 13430771  HIT %: 61.4919  MISS %: 38.5081  AVERAGE MISS PENALTY: 1394.24
L1D PREFETCH  ACCESS: 7456029  HIT: 6618825  MISS: 837204  HIT %: 88.7714  MISS %: 11.2286  AVERAGE MISS PENALTY: 1170.62
L1D WRITEBACK ACCESS:     0  HIT:     0  MISS:     0  HIT %:     0  MISS %:     0  AVERAGE MISS PENALTY: 0

L1I TOTAL     ACCESS: 42538349  HIT: 42538349  MISS:     0  HIT %:   100  MISS %:     0  AVERAGE MISS PENALTY: 0
L1I LOAD      ACCESS: 42538349  HIT: 42538349  MISS:     0  HIT %:   100  MISS %:     0  AVERAGE MISS PENALTY: 0
L1I RFO       ACCESS:     0  HIT:     0  MISS:     0  HIT %:     0  MISS %:     0  AVERAGE MISS PENALTY: 0
L1I PREFETCH  ACCESS:     0  HIT:     0  MISS:     0  HIT %:     0  MISS %:     0  AVERAGE MISS PENALTY: 0
L1I WRITEBACK ACCESS:     0  HIT:     0  MISS:     0  HIT %:     0  MISS %:     0  AVERAGE MISS PENALTY: 0

L2C TOTAL     ACCESS: 30085076  HIT: 19565847  MISS: 10519229  HIT %: 65.0351  MISS %: 34.9649  AVERAGE MISS PENALTY: 8.66693e+07
L2C LOAD      ACCESS: 1563400  HIT: 271453  MISS: 1291947  HIT %: 17.363  MISS %: 82.637  AVERAGE MISS PENALTY: 7.05659e+08
L2C RFO       ACCESS: 13430768  HIT: 5312037  MISS: 8118731  HIT %: 39.5513  MISS %: 60.4487  AVERAGE MISS PENALTY: 2280.08
L2C PREFETCH  ACCESS: 1660139  HIT: 552323  MISS: 1107816  HIT %: 33.2697  MISS %: 66.7303  AVERAGE MISS PENALTY: 1825.7
L2C WRITEBACK ACCESS: 13430769  HIT: 13430034  MISS:   735  HIT %: 99.9945  MISS %: 0.00547251  AVERAGE MISS PENALTY: 0


LLC0 TOTAL     ACCESS: 2328741  HIT: 893294  MISS: 1435447  HIT %: 38.3595  MISS %: 61.6405  AVERAGE MISS PENALTY: 2009.41
LLC0 LOAD      ACCESS: 66447  HIT:     0  MISS: 66447  HIT %:     0  MISS %:   100  AVERAGE MISS PENALTY: 2118.31
LLC0 RFO       ACCESS: 1014338  HIT: 111645  MISS: 902693  HIT %: 11.0067  MISS %: 88.9933  AVERAGE MISS PENALTY: 2465.37
LLC0 PREFETCH  ACCESS: 233330  HIT:     0  MISS: 233330  HIT %:     0  MISS %:   100  AVERAGE MISS PENALTY: 2220.8
LLC0 WRITEBACK ACCESS: 1014626  HIT: 781649  MISS: 232977  HIT %: 77.0381  MISS %: 22.9619  AVERAGE MISS PENALTY: 0

LLC1 TOTAL     ACCESS: 2329413  HIT: 894156  MISS: 1435257  HIT %: 38.3855  MISS %: 61.6145  AVERAGE MISS PENALTY: 2014.83
LLC1 LOAD      ACCESS: 51685  HIT:    15  MISS: 51670  HIT %: 0.029022  MISS %: 99.971  AVERAGE MISS PENALTY: 2117.68
LLC1 RFO       ACCESS: 1014620  HIT: 112025  MISS: 902595  HIT %: 11.0411  MISS %: 88.9589  AVERAGE MISS PENALTY: 2470.93
LLC1 PREFETCH  ACCESS: 248184  HIT:     0  MISS: 248184  HIT %:     0  MISS %:   100  AVERAGE MISS PENALTY: 2224.67
LLC1 WRITEBACK ACCESS: 1014924  HIT: 782116  MISS: 232808  HIT %: 77.0615  MISS %: 22.9385  AVERAGE MISS PENALTY: 0

LLC2 TOTAL     ACCESS: 2329015  HIT: 893899  MISS: 1435116  HIT %: 38.381  MISS %: 61.619  AVERAGE MISS PENALTY: 1989.27
LLC2 LOAD      ACCESS: 41725  HIT:    17  MISS: 41708  HIT %: 0.040743  MISS %: 99.9593  AVERAGE MISS PENALTY: 2106.68
LLC2 RFO       ACCESS: 1014426  HIT: 111801  MISS: 902625  HIT %: 11.0211  MISS %: 88.9789  AVERAGE MISS PENALTY: 2409.64
LLC2 PREFETCH  ACCESS: 258147  HIT:     0  MISS: 258147  HIT %:     0  MISS %:   100  AVERAGE MISS PENALTY: 2293.14
LLC2 WRITEBACK ACCESS: 1014717  HIT: 782081  MISS: 232636  HIT %: 77.0738  MISS %: 22.9262  AVERAGE MISS PENALTY: 0

LLC3 TOTAL     ACCESS: 2329293  HIT: 893399  MISS: 1435894  HIT %: 38.3549  MISS %: 61.6451  AVERAGE MISS PENALTY: 1994.61
LLC3 LOAD      ACCESS: 41901  HIT:    12  MISS: 41889  HIT %: 0.0286389  MISS %: 99.9714  AVERAGE MISS PENALTY: 2122.69
LLC3 RFO       ACCESS: 1014562  HIT: 111877  MISS: 902685  HIT %: 11.0271  MISS %: 88.9729  AVERAGE MISS PENALTY: 2416.81
LLC3 PREFETCH  ACCESS: 257979  HIT:     5  MISS: 257974  HIT %: 0.00193814  MISS %: 99.9981  AVERAGE MISS PENALTY: 2300.66
LLC3 WRITEBACK ACCESS: 1014851  HIT: 781505  MISS: 233346  HIT %: 77.0069  MISS %: 22.9931  AVERAGE MISS PENALTY: 0

LLC4 TOTAL     ACCESS: 2329734  HIT: 894423  MISS: 1435311  HIT %: 38.3916  MISS %: 61.6084  AVERAGE MISS PENALTY: 2028.65
LLC4 LOAD      ACCESS: 39762  HIT:     0  MISS: 39762  HIT %:     0  MISS %:   100  AVERAGE MISS PENALTY: 2130.24
LLC4 RFO       ACCESS: 1014765  HIT: 111991  MISS: 902774  HIT %: 11.0362  MISS %: 88.9638  AVERAGE MISS PENALTY: 2489.28
LLC4 PREFETCH  ACCESS: 260155  HIT:    42  MISS: 260113  HIT %: 0.0161442  MISS %: 99.9839  AVERAGE MISS PENALTY: 2228.95
LLC4 WRITEBACK ACCESS: 1015052  HIT: 782390  MISS: 232662  HIT %: 77.0788  MISS %: 22.9212  AVERAGE MISS PENALTY: 0

LLC5 TOTAL     ACCESS: 2329841  HIT: 894479  MISS: 1435362  HIT %: 38.3923  MISS %: 61.6077  AVERAGE MISS PENALTY: 2024.85
LLC5 LOAD      ACCESS: 40000  HIT:     0  MISS: 40000  HIT %:     0  MISS %:   100  AVERAGE MISS PENALTY: 2103.49
LLC5 RFO       ACCESS: 1014816  HIT: 112073  MISS: 902743  HIT %: 11.0437  MISS %: 88.9563  AVERAGE MISS PENALTY: 2484.84
LLC5 PREFETCH  ACCESS: 259925  HIT:    61  MISS: 259864  HIT %: 0.0234683  MISS %: 99.9765  AVERAGE MISS PENALTY: 2228.43
LLC5 WRITEBACK ACCESS: 1015100  HIT: 782345  MISS: 232755  HIT %: 77.0707  MISS %: 22.9293  AVERAGE MISS PENALTY: 0

LLC6 TOTAL     ACCESS: 2330011  HIT: 894755  MISS: 1435256  HIT %: 38.4013  MISS %: 61.5987  AVERAGE MISS PENALTY: 1998.48
LLC6 LOAD      ACCESS: 40491  HIT:     0  MISS: 40491  HIT %:     0  MISS %:   100  AVERAGE MISS PENALTY: 2154.6
LLC6 RFO       ACCESS: 1014776  HIT: 112070  MISS: 902706  HIT %: 11.0438  MISS %: 88.9562  AVERAGE MISS PENALTY: 2422.3
LLC6 PREFETCH  ACCESS: 259775  HIT:   280  MISS: 259495  HIT %: 0.107786  MISS %: 99.8922  AVERAGE MISS PENALTY: 2290.81
LLC6 WRITEBACK ACCESS: 1014969  HIT: 782405  MISS: 232564  HIT %: 77.0866  MISS %: 22.9134  AVERAGE MISS PENALTY: 0

LLC7 TOTAL     ACCESS: 2329550  HIT: 894046  MISS: 1435504  HIT %: 38.3785  MISS %: 61.6215  AVERAGE MISS PENALTY: 2049.95
LLC7 LOAD      ACCESS: 40598  HIT:     0  MISS: 40598  HIT %:     0  MISS %:   100  AVERAGE MISS PENALTY: 2151.21
LLC7 RFO       ACCESS: 1014547  HIT: 111918  MISS: 902629  HIT %: 11.0313  MISS %: 88.9687  AVERAGE MISS PENALTY: 2506.41
LLC7 PREFETCH  ACCESS: 259659  HIT:   267  MISS: 259392  HIT %: 0.102827  MISS %: 99.8972  AVERAGE MISS PENALTY: 2286.2
LLC7 WRITEBACK ACCESS: 1014746  HIT: 781861  MISS: 232885  HIT %: 77.0499  MISS %: 22.9501  AVERAGE MISS PENALTY: 0

Total Rob stall cycles : 	1563986224
Total Load Rob Stall cycles : 	1499890096
Average Rob Stall cycles : 	 123
Average Load Rob Stall cycles : 	 798

CPU 1 cumulative IPC: 0.122692 instructions: 200784386 cycles: 1636489999
ITLB TOTAL     ACCESS: 30805907  HIT: 30805907  MISS:     0  HIT %:   100  MISS %:     0  AVERAGE MISS PENALTY: 0
ITLB LOAD      ACCESS: 30805907  HIT: 30805907  MISS:     0  HIT %:   100  MISS %:     0  AVERAGE MISS PENALTY: 0
ITLB RFO       ACCESS:     0  HIT:     0  MISS:     0  HIT %:     0  MISS %:     0  AVERAGE MISS PENALTY: 0
ITLB PREFETCH  ACCESS:     0  HIT:     0  MISS:     0  HIT %:     0  MISS %:     0  AVERAGE MISS PENALTY: 0
ITLB WRITEBACK ACCESS:     0  HIT:     0  MISS:     0  HIT %:     0  MISS %:     0  AVERAGE MISS PENALTY: 0

DTLB TOTAL     ACCESS: 40558293  HIT: 40281998  MISS: 276295  HIT %: 99.3188  MISS %: 0.681229  AVERAGE MISS PENALTY: 87.2202
DTLB LOAD      ACCESS: 19618111  HIT: 19580618  MISS: 37493  HIT %: 99.8089  MISS %: 0.191114  AVERAGE MISS PENALTY: 109.002
DTLB RFO       ACCESS: 20940182  HIT: 20701380  MISS: 238802  HIT %: 98.8596  MISS %: 1.1404  AVERAGE MISS PENALTY: 83.8003
DTLB PREFETCH  ACCESS:     0  HIT:     0  MISS:     0  HIT %:     0  MISS %:     0  AVERAGE MISS PENALTY: 0
DTLB WRITEBACK ACCESS:     0  HIT:     0  MISS:     0  HIT %:     0  MISS %:     0  AVERAGE MISS PENALTY: 0

STLB TOTAL     ACCESS: 276295  HIT: 126372  MISS: 149923  HIT %: 45.7381  MISS %: 54.2619  AVERAGE MISS PENALTY: 100
STLB LOAD      ACCESS: 37493  HIT:     0  MISS: 37493  HIT %:     0  MISS %:   100  AVERAGE MISS PENALTY: 100
STLB RFO       ACCESS: 238802  HIT: 126372  MISS: 112430  HIT %: 52.9192  MISS %: 47.0808  AVERAGE MISS PENALTY: 100
STLB PREFETCH  ACCESS:     0  HIT:     0  MISS:     0  HIT %:     0  MISS %:     0  AVERAGE MISS PENALTY: 0
STLB WRITEBACK ACCESS:     0  HIT:     0  MISS:     0  HIT %:     0  MISS %:     0  AVERAGE MISS PENALTY: 0

L1D TOTAL     ACCESS: 58855466  HIT: 43017196  MISS: 15838270  HIT %: 73.0896  MISS %: 26.9104  AVERAGE MISS PENALTY: 3.4125e+07
L1D LOAD      ACCESS: 16558594  HIT: 14985503  MISS: 1573091  HIT %: 90.4999  MISS %: 9.50015  AVERAGE MISS PENALTY: 3.43567e+08
L1D RFO       ACCESS: 34861434  HIT: 21432074  MISS: 13429360  HIT %: 61.4779  MISS %: 38.5221  AVERAGE MISS PENALTY: 1384.22
L1D PREFETCH  ACCESS: 7435438  HIT: 6599619  MISS: 835819  HIT %: 88.759  MISS %: 11.241  AVERAGE MISS PENALTY: 1171.63
L1D WRITEBACK ACCESS:     0  HIT:     0  MISS:     0  HIT %:     0  MISS %:     0  AVERAGE MISS PENALTY: 0

L1I TOTAL     ACCESS: 42535380  HIT: 42535380  MISS:     0  HIT %:   100  MISS %:     0  AVERAGE MISS PENALTY: 0
L1I LOAD      ACCESS: 42535380  HIT: 42535380  MISS:     0  HIT %:   100  MISS %:     0  AVERAGE MISS PENALTY: 0
L1I RFO       ACCESS:     0  HIT:     0  MISS:     0  HIT %:     0  MISS %:     0  AVERAGE MISS PENALTY: 0
L1I PREFETCH  ACCESS:     0  HIT:     0  MISS:     0  HIT %:     0  MISS %:     0  AVERAGE MISS PENALTY: 0
L1I WRITEBACK ACCESS:     0  HIT:     0  MISS:     0  HIT %:     0  MISS %:     0  AVERAGE MISS PENALTY: 0

L2C TOTAL     ACCESS: 30085449  HIT: 19510470  MISS: 10574979  HIT %: 64.8502  MISS %: 35.1498  AVERAGE MISS PENALTY: 8.61387e+07
L2C LOAD      ACCESS: 1564502  HIT: 272896  MISS: 1291606  HIT %: 17.443  MISS %: 82.557  AVERAGE MISS PENALTY: 7.05242e+08
L2C RFO       ACCESS: 13429361  HIT: 5255582  MISS: 8173779  HIT %: 39.135  MISS %: 60.865  AVERAGE MISS PENALTY: 2248.02
L2C PREFETCH  ACCESS: 1662228  HIT: 554243  MISS: 1107985  HIT %: 33.3434  MISS %: 66.6566  AVERAGE MISS PENALTY: 1825.89
L2C WRITEBACK ACCESS: 13429358  HIT: 13427749  MISS:  1609  HIT %: 99.988  MISS %: 0.0119812  AVERAGE MISS PENALTY: 0


LLC0 TOTAL     ACCESS: 2342645  HIT: 907003  MISS: 1435642  HIT %: 38.717  MISS %: 61.283  AVERAGE MISS PENALTY: 2011.45
LLC0 LOAD      ACCESS: 66807  HIT:     0  MISS: 66807  HIT %:     0  MISS %:   100  AVERAGE MISS PENALTY: 2116.21
LLC0 RFO       ACCESS: 1021381  HIT: 118685  MISS: 902696  HIT %: 11.6201  MISS %: 88.3799  AVERAGE MISS PENALTY: 2470.37
LLC0 PREFETCH  ACCESS: 232938  HIT:     0  MISS: 232938  HIT %:     0  MISS %:   100  AVERAGE MISS PENALTY: 2216.67
LLC0 WRITEBACK ACCESS: 1021519  HIT: 788318  MISS: 233201  HIT %: 77.1712  MISS %: 22.8288  AVERAGE MISS PENALTY: 0

LLC1 TOTAL     ACCESS: 2342818  HIT: 907545  MISS: 1435273  HIT %: 38.7373  MISS %: 61.2627  AVERAGE MISS PENALTY: 2015.75
LLC1 LOAD      ACCESS: 51518  HIT:    19  MISS: 51499  HIT %: 0.0368803  MISS %: 99.9631  AVERAGE MISS PENALTY: 2107.05
LLC1 RFO       ACCESS: 1021416  HIT: 118633  MISS: 902783  HIT %: 11.6146  MISS %: 88.3854  AVERAGE MISS PENALTY: 2473.38
LLC1 PREFETCH  ACCESS: 248321  HIT:     0  MISS: 248321  HIT %:     0  MISS %:   100  AVERAGE MISS PENALTY: 2221.8
LLC1 WRITEBACK ACCESS: 1021563  HIT: 788893  MISS: 232670  HIT %: 77.2241  MISS %: 22.7759  AVERAGE MISS PENALTY: 0

LLC2 TOTAL     ACCESS: 2342314  HIT: 907389  MISS: 1434925  HIT %: 38.739  MISS %: 61.261  AVERAGE MISS PENALTY: 1991.4
LLC2 LOAD      ACCESS: 41554  HIT:    20  MISS: 41534  HIT %: 0.0481301  MISS %: 99.9519  AVERAGE MISS PENALTY: 2101.46
LLC2 RFO       ACCESS: 1021151  HIT: 118221  MISS: 902930  HIT %: 11.5772  MISS %: 88.4228  AVERAGE MISS PENALTY: 2411.85
LLC2 PREFETCH  ACCESS: 258285  HIT:     0  MISS: 258285  HIT %:     0  MISS %:   100  AVERAGE MISS PENALTY: 2293.98
LLC2 WRITEBACK ACCESS: 1021324  HIT: 789148  MISS: 232176  HIT %: 77.2672  MISS %: 22.7328  AVERAGE MISS PENALTY: 0

LLC3 TOTAL     ACCESS: 2342998  HIT: 908438  MISS: 1434560  HIT %: 38.7725  MISS %: 61.2275  AVERAGE MISS PENALTY: 1997.03
LLC3 LOAD      ACCESS: 41810  HIT:    12  MISS: 41798  HIT %: 0.0287013  MISS %: 99.9713  AVERAGE MISS PENALTY: 2129.52
[...]
LLC1 AVERAGE MISS LATENCY: 2011.32 cycles
LLC2 TOTAL     ACCESS: 2319306  HIT: 890382  MISS: 1428924  HIT %: 38.39  MISS %: 61.61  AVERAGE MISS PENALTY: 1988.48
LLC2 LOAD      ACCESS: 41533  HIT:    17  MISS: 41516  HIT %: 0.0409313  MISS %: 99.9591  AVERAGE MISS PENALTY: 2107.87
LLC2 RFO       ACCESS: 1010241  HIT: 111479  MISS: 898762  HIT %: 11.0349  MISS %: 88.9651  AVERAGE MISS PENALTY: 2408.16
LLC2 PREFETCH  ACCESS: 257015  HIT:     0  MISS: 257015  HIT %:     0  MISS %:   100  AVERAGE MISS PENALTY: 2293.71
LLC2 WRITEBACK ACCESS: 1010517  HIT: 778886  MISS: 231631  HIT %: 77.078  MISS %: 22.922  AVERAGE MISS PENALTY: 0
LLC2 PREFETCH  REQUESTED:     0  ISSUED:     0  USEFUL:     0  USELESS: 2065666
 USEFUL LOAD PREFETCHES:          0 PREFETCH ISSUED TO LOWER LEVEL:  679833853  ACCURACY: 0
 TIMELY PREFETCHES:          0 LATE PREFETCHES: 0 DROPPED PREFETCHES: 0
LLC2 AVERAGE MISS LATENCY: 1988.48 cycles
LLC3 TOTAL     ACCESS: 2319574  HIT: 890797  MISS: 1428777  HIT %: 38.4035  MISS %: 61.5965  AVERAGE MISS PENALTY: 1994.47
LLC3 LOAD      ACCESS: 41297  HIT:    11  MISS: 41286  HIT %: 0.0266363  MISS %: 99.9734  AVERAGE MISS PENALTY: 2148.59
LLC3 RFO       ACCESS: 1010361  HIT: 111605  MISS: 898756  HIT %: 11.0461  MISS %: 88.9539  AVERAGE MISS PENALTY: 2414.43
LLC3 PREFETCH  ACCESS: 257247  HIT:     5  MISS: 257242  HIT %: 0.00194366  MISS %: 99.9981  AVERAGE MISS PENALTY: 2297.32
LLC3 WRITEBACK ACCESS: 1010669  HIT: 779176  MISS: 231493  HIT %: 77.0951  MISS %: 22.9049  AVERAGE MISS PENALTY: 0
LLC3 PREFETCH  REQUESTED:     0  ISSUED:     0  USEFUL:    17  USELESS: 2064908
 USEFUL LOAD PREFETCHES:         17 PREFETCH ISSUED TO LOWER LEVEL:  686869629  ACCURACY: 2.475e-06
 TIMELY PREFETCHES:         17 LATE PREFETCHES: 0 DROPPED PREFETCHES: 0
LLC3 AVERAGE MISS LATENCY: 1994.47 cycles
LLC4 TOTAL     ACCESS: 2320194  HIT: 891118  MISS: 1429076  HIT %: 38.407  MISS %: 61.593  AVERAGE MISS PENALTY: 2026.84
LLC4 LOAD      ACCESS: 39740  HIT:     0  MISS: 39740  HIT %:     0  MISS %:   100  AVERAGE MISS PENALTY: 2116.92
LLC4 RFO       ACCESS: 1010657  HIT: 111903  MISS: 898754  HIT %: 11.0723  MISS %: 88.9277  AVERAGE MISS PENALTY: 2487.94
LLC4 PREFETCH  ACCESS: 258848  HIT:    40  MISS: 258808  HIT %: 0.0154531  MISS %: 99.9845  AVERAGE MISS PENALTY: 2226.92
LLC4 WRITEBACK ACCESS: 1010949  HIT: 779175  MISS: 231774  HIT %: 77.0736  MISS %: 22.9264  AVERAGE MISS PENALTY: 0
LLC4 PREFETCH  REQUESTED:     0  ISSUED:     0  USEFUL:     0  USELESS: 2079455
 USEFUL LOAD PREFETCHES:          0 PREFETCH ISSUED TO LOWER LEVEL:  768256197  ACCURACY: 0
 TIMELY PREFETCHES:          0 LATE PREFETCHES: 0 DROPPED PREFETCHES: 0
LLC4 AVERAGE MISS LATENCY: 2026.84 cycles
LLC5 TOTAL     ACCESS: 2319905  HIT: 890825  MISS: 1429080  HIT %: 38.3992  MISS %: 61.6008  AVERAGE MISS PENALTY: 2021.33
LLC5 LOAD      ACCESS: 40171  HIT:     0  MISS: 40171  HIT %:     0  MISS %:   100  AVERAGE MISS PENALTY: 2113.4
LLC5 RFO       ACCESS: 1010517  HIT: 111777  MISS: 898740  HIT %: 11.0614  MISS %: 88.9386  AVERAGE MISS PENALTY: 2480.03
LLC5 PREFETCH  ACCESS: 258408  HIT:    35  MISS: 258373  HIT %: 0.0135445  MISS %: 99.9865  AVERAGE MISS PENALTY: 2224.87
LLC5 WRITEBACK ACCESS: 1010809  HIT: 779013  MISS: 231796  HIT %: 77.0683  MISS %: 22.9317  AVERAGE MISS PENALTY: 0
LLC5 PREFETCH  REQUESTED:     0  ISSUED:     0  USEFUL:     0  USELESS: 2075785
 USEFUL LOAD PREFETCHES:          0 PREFETCH ISSUED TO LOWER LEVEL:  770447768  ACCURACY: 0
 TIMELY PREFETCHES:          0 LATE PREFETCHES: 0 DROPPED PREFETCHES: 0
LLC5 AVERAGE MISS LATENCY: 2021.33 cycles
LLC6 TOTAL     ACCESS: 2320431  HIT: 891805  MISS: 1428626  HIT %: 38.4327  MISS %: 61.5673  AVERAGE MISS PENALTY: 1998.06
LLC6 LOAD      ACCESS: 40443  HIT:     0  MISS: 40443  HIT %:     0  MISS %:   100  AVERAGE MISS PENALTY: 2157.04
LLC6 RFO       ACCESS: 1010630  HIT: 112034  MISS: 898596  HIT %: 11.0856  MISS %: 88.9144  AVERAGE MISS PENALTY: 2421.46
LLC6 PREFETCH  ACCESS: 258527  HIT:   297  MISS: 258230  HIT %: 0.114882  MISS %: 99.8851  AVERAGE MISS PENALTY: 2289.92
LLC6 WRITEBACK ACCESS: 1010831  HIT: 779474  MISS: 231357  HIT %: 77.1122  MISS %: 22.8878  AVERAGE MISS PENALTY: 0
LLC6 PREFETCH  REQUESTED:     0  ISSUED:     0  USEFUL:     0  USELESS: 2073736
 USEFUL LOAD PREFETCHES:          0 PREFETCH ISSUED TO LOWER LEVEL: 1090287522  ACCURACY: 0
 TIMELY PREFETCHES:          0 LATE PREFETCHES: 0 DROPPED PREFETCHES: 0
LLC6 AVERAGE MISS LATENCY: 1998.06 cycles
LLC7 TOTAL     ACCESS: 2319970  HIT: 891182  MISS: 1428788  HIT %: 38.4135  MISS %: 61.5865  AVERAGE MISS PENALTY: 1993.17
LLC7 LOAD      ACCESS: 40604  HIT:     0  MISS: 40604  HIT %:     0  MISS %:   100  AVERAGE MISS PENALTY: 2140.49
LLC7 RFO       ACCESS: 1010387  HIT: 111742  MISS: 898645  HIT %: 11.0593  MISS %: 88.9407  AVERAGE MISS PENALTY: 2417.81
LLC7 PREFETCH  ACCESS: 258371  HIT:   294  MISS: 258077  HIT %: 0.11379  MISS %: 99.8862  AVERAGE MISS PENALTY: 2278.98
LLC7 WRITEBACK ACCESS: 1010608  HIT: 779146  MISS: 231462  HIT %: 77.0968  MISS %: 22.9032  AVERAGE MISS PENALTY: 0
LLC7 PREFETCH  REQUESTED:     0  ISSUED:     0  USEFUL:     0  USELESS: 2072686
 USEFUL LOAD PREFETCHES:          0 PREFETCH ISSUED TO LOWER LEVEL: 1105057150  ACCURACY: 0
 TIMELY PREFETCHES:          0 LATE PREFETCHES: 0 DROPPED PREFETCHES: 0
LLC7 AVERAGE MISS LATENCY: 1993.17 cycles
ROI Average ROB Stall Cycles:	123.48
ROI Total ROB Stalls Cycles:	1554524118
ROI TOTAL ROB counter      :	12589239
ROI Average Load ROB Stall Cycles:	796.286
ROI Total Load ROB Stalls Cycle  :	1490958261
ROI Total Load ROB stalls Counter:	1872390
Major fault: 0 Minor fault: 152368

CPU 7 cumulative IPC: 0.122591 instructions: 200000000 cycles: 1631438593
ITLB TOTAL     ACCESS: 30684244  HIT: 30684244  MISS:     0  HIT %:   100  MISS %:     0  AVERAGE MISS PENALTY: 0
ITLB LOAD      ACCESS: 30684244  HIT: 30684244  MISS:     0  HIT %:   100  MISS %:     0  AVERAGE MISS PENALTY: 0
ITLB RFO       ACCESS:     0  HIT:     0  MISS:     0  HIT %:     0  MISS %:     0  AVERAGE MISS PENALTY: 0
ITLB PREFETCH  ACCESS:     0  HIT:     0  MISS:     0  HIT %:     0  MISS %:     0  AVERAGE MISS PENALTY: 0
ITLB WRITEBACK ACCESS:     0  HIT:     0  MISS:     0  HIT %:     0  MISS %:     0  AVERAGE MISS PENALTY: 0
ITLB PREFETCH  REQUESTED:     0  ISSUED:     0  USEFUL:     0  USELESS:     0
 USEFUL LOAD PREFETCHES:          0 PREFETCH ISSUED TO LOWER LEVEL:          0  ACCURACY: -nan
 TIMELY PREFETCHES:          0 LATE PREFETCHES: 0 DROPPED PREFETCHES: 0
ITLB AVERAGE MISS LATENCY: -nan cycles
DTLB TOTAL     ACCESS: 40395173  HIT: 40120070  MISS: 275103  HIT %: 99.319  MISS %: 0.681029  AVERAGE MISS PENALTY: 87.1968
DTLB LOAD      ACCESS: 19540533  HIT: 19503202  MISS: 37331  HIT %: 99.809  MISS %: 0.191044  AVERAGE MISS PENALTY: 109.002
DTLB RFO       ACCESS: 20854640  HIT: 20616868  MISS: 237772  HIT %: 98.8599  MISS %: 1.14014  AVERAGE MISS PENALTY: 83.7732
DTLB PREFETCH  ACCESS:     0  HIT:     0  MISS:     0  HIT %:     0  MISS %:     0  AVERAGE MISS PENALTY: 0
DTLB WRITEBACK ACCESS:     0  HIT:     0  MISS:     0  HIT %:     0  MISS %:     0  AVERAGE MISS PENALTY: 0
DTLB PREFETCH  REQUESTED:     0  ISSUED:     0  USEFUL:     0  USELESS:     0
 USEFUL LOAD PREFETCHES:          0 PREFETCH ISSUED TO LOWER LEVEL:          0  ACCURACY: -nan
 TIMELY PREFETCHES:          0 LATE PREFETCHES: 0 DROPPED PREFETCHES: 0
DTLB AVERAGE MISS LATENCY: 87.1968 cycles
STLB TOTAL     ACCESS: 275103  HIT: 125827  MISS: 149276  HIT %: 45.7381  MISS %: 54.2619  AVERAGE MISS PENALTY: 100
STLB LOAD      ACCESS: 37331  HIT:     0  MISS: 37331  HIT %:     0  MISS %:   100  AVERAGE MISS PENALTY: 100
STLB RFO       ACCESS: 237772  HIT: 125827  MISS: 111945  HIT %: 52.9192  MISS %: 47.0808  AVERAGE MISS PENALTY: 100
STLB PREFETCH  ACCESS:     0  HIT:     0  MISS:     0  HIT %:     0  MISS %:     0  AVERAGE MISS PENALTY: 0
STLB WRITEBACK ACCESS:     0  HIT:     0  MISS:     0  HIT %:     0  MISS %:     0  AVERAGE MISS PENALTY: 0
STLB PREFETCH  REQUESTED:     0  ISSUED:     0  USEFUL:     0  USELESS:     0
 USEFUL LOAD PREFETCHES:          0 PREFETCH ISSUED TO LOWER LEVEL:          0  ACCURACY: -nan
 TIMELY PREFETCHES:          0 LATE PREFETCHES: 0 DROPPED PREFETCHES: 0
STLB AVERAGE MISS LATENCY: 100 cycles
L1D TOTAL     ACCESS: 58564012  HIT: 42793891  MISS: 15770121  HIT %: 73.072  MISS %: 26.928  AVERAGE MISS PENALTY: 3.37741e+07
L1D LOAD      ACCESS: 16470165  HIT: 14902707  MISS: 1567458  HIT %: 90.483  MISS %: 9.51695  AVERAGE MISS PENALTY: 3.39787e+08
L1D RFO       ACCESS: 34696506  HIT: 21325038  MISS: 13371468  HIT %: 61.4616  MISS %: 38.5384  AVERAGE MISS PENALTY: 1395.9
L1D PREFETCH  ACCESS: 7397341  HIT: 6566146  MISS: 831195  HIT %: 88.7636  MISS %: 11.2364  AVERAGE MISS PENALTY: 1166.19
L1D WRITEBACK ACCESS:     0  HIT:     0  MISS:     0  HIT %:     0  MISS %:     0  AVERAGE MISS PENALTY: 0
L1D PREFETCH  REQUESTED: 26210094  ISSUED: 22041873  USEFUL: 820572  USELESS: 10626
 USEFUL LOAD PREFETCHES:     820572 PREFETCH ISSUED TO LOWER LEVEL: 1937743955  ACCURACY: 0.0423468
 TIMELY PREFETCHES:     820572 LATE PREFETCHES: 1829060 DROPPED PREFETCHES: 4168221
L1D AVERAGE MISS LATENCY: 1395.39 cycles
L1I TOTAL     ACCESS: 42368311  HIT: 42368311  MISS:     0  HIT %:   100  MISS %:     0  AVERAGE MISS PENALTY: 0
L1I LOAD      ACCESS: 42368311  HIT: 42368311  MISS:     0  HIT %:   100  MISS %:     0  AVERAGE MISS PENALTY: 0
L1I RFO       ACCESS:     0  HIT:     0  MISS:     0  HIT %:     0  MISS %:     0  AVERAGE MISS PENALTY: 0
L1I PREFETCH  ACCESS:     0  HIT:     0  MISS:     0  HIT %:     0  MISS %:     0  AVERAGE MISS PENALTY: 0
L1I WRITEBACK ACCESS:     0  HIT:     0  MISS:     0  HIT %:     0  MISS %:     0  AVERAGE MISS PENALTY: 0
L1I PREFETCH  REQUESTED:     0  ISSUED:     0  USEFUL:     0  USELESS:     0
 USEFUL LOAD PREFETCHES:          0 PREFETCH ISSUED TO LOWER LEVEL:          0  ACCURACY: -nan
 TIMELY PREFETCHES:          0 LATE PREFETCHES: 0 DROPPED PREFETCHES: 0
L1I AVERAGE MISS LATENCY: -nan cycles
L2C TOTAL     ACCESS: 29958703  HIT: 19373321  MISS: 10585382  HIT %: 64.6668  MISS %: 35.3332  AVERAGE MISS PENALTY: 8.53116e+07
L2C LOAD      ACCESS: 1559060  HIT: 273734  MISS: 1285326  HIT %: 17.5576  MISS %: 82.4424  AVERAGE MISS PENALTY: 7.02573e+08
L2C RFO       ACCESS: 13371465  HIT: 5180346  MISS: 8191119  HIT %: 38.7418  MISS %: 61.2582  AVERAGE MISS PENALTY: 2242.92
L2C PREFETCH  ACCESS: 1656704  HIT: 552773  MISS: 1103931  HIT %: 33.3658  MISS %: 66.6342  AVERAGE MISS PENALTY: 1822.17
L2C WRITEBACK ACCESS: 13371474  HIT: 13366468  MISS:  5006  HIT %: 99.9626  MISS %: 0.0374379  AVERAGE MISS PENALTY: 0
L2C PREFETCH  REQUESTED: 4170494  ISSUED: 4170474  USEFUL: 273627  USELESS: 832424
 USEFUL LOAD PREFETCHES:     273627 PREFETCH ISSUED TO LOWER LEVEL:    4160460  ACCURACY: 6.57684
 TIMELY PREFETCHES:     273627 LATE PREFETCHES: 1665854 DROPPED PREFETCHES: 20
L2C AVERAGE MISS LATENCY: 2146.74 cycles
LLC0 TOTAL     ACCESS: 2345308  HIT: 917801  MISS: 1427507  HIT %: 39.1335  MISS %: 60.8665  AVERAGE MISS PENALTY: 2020.46
LLC0 LOAD      ACCESS: 66536  HIT:     0  MISS: 66536  HIT %:     0  MISS %:   100  AVERAGE MISS PENALTY: 2106.64
LLC0 RFO       ACCESS: 1023315  HIT: 124159  MISS: 899156  HIT %: 12.133  MISS %: 87.867  AVERAGE MISS PENALTY: 2479.94
LLC0 PREFETCH  ACCESS: 231918  HIT:     0  MISS: 231918  HIT %:     0  MISS %:   100  AVERAGE MISS PENALTY: 2217.16
LLC0 WRITEBACK ACCESS: 1023539  HIT: 793642  MISS: 229897  HIT %: 77.539  MISS %: 22.461  AVERAGE MISS PENALTY: 0
LLC0 PREFETCH  REQUESTED:     0  ISSUED:     0  USEFUL:     0  USELESS: 1863829
 USEFUL LOAD PREFETCHES:          0 PREFETCH ISSUED TO LOWER LEVEL:  572126714  ACCURACY: 0
 TIMELY PREFETCHES:          0 LATE PREFETCHES: 0 DROPPED PREFETCHES: 0
LLC0 AVERAGE MISS LATENCY: 2020.46 cycles
Deadblocks : 493317 Deadblock percentage : 741.429

LLC1 TOTAL     ACCESS: 2345664  HIT: 918303  MISS: 1427361  HIT %: 39.149  MISS %: 60.851  AVERAGE MISS PENALTY: 2021.86
LLC1 LOAD      ACCESS: 51592  HIT:    17  MISS: 51575  HIT %: 0.0329508  MISS %: 99.967  AVERAGE MISS PENALTY: 2098.08
LLC1 RFO       ACCESS: 1023451  HIT: 124377  MISS: 899074  HIT %: 12.1527  MISS %: 87.8473  AVERAGE MISS PENALTY: 2480.67
LLC1 PREFETCH  ACCESS: 246952  HIT:     0  MISS: 246952  HIT %:     0  MISS %:   100  AVERAGE MISS PENALTY: 2216.67
LLC1 WRITEBACK ACCESS: 1023669  HIT: 793909  MISS: 229760  HIT %: 77.5552  MISS %: 22.4448  AVERAGE MISS PENALTY: 0
LLC1 PREFETCH  REQUESTED:     0  ISSUED:     0  USEFUL:     0  USELESS: 1985065
 USEFUL LOAD PREFETCHES:          0 PREFETCH ISSUED TO LOWER LEVEL:  604553702  ACCURACY: 0
 TIMELY PREFETCHES:          0 LATE PREFETCHES: 0 DROPPED PREFETCHES: 0
LLC1 AVERAGE MISS LATENCY: 2021.86 cycles
LLC2 TOTAL     ACCESS: 2346142  HIT: 918221  MISS: 1427921  HIT %: 39.1375  MISS %: 60.8625  AVERAGE MISS PENALTY: 1997.69
LLC2 LOAD      ACCESS: 41589  HIT:    15  MISS: 41574  HIT %: 0.0360672  MISS %: 99.9639  AVERAGE MISS PENALTY: 2100.2
LLC2 RFO       ACCESS: 1023686  HIT: 124596  MISS: 899090  HIT %: 12.1713  MISS %: 87.8287  AVERAGE MISS PENALTY: 2420.37
LLC2 PREFETCH  ACCESS: 256960  HIT:     0  MISS: 256960  HIT %:     0  MISS %:   100  AVERAGE MISS PENALTY: 2292.56
LLC2 WRITEBACK ACCESS: 1023907  HIT: 793610  MISS: 230297  HIT %: 77.508  MISS %: 22.492  AVERAGE MISS PENALTY: 0
LLC2 PREFETCH  REQUESTED:     0  ISSUED:     0  USEFUL:     0  USELESS: 2065666
 USEFUL LOAD PREFETCHES:          0 PREFETCH ISSUED TO LOWER LEVEL:  679833853  ACCURACY: 0
 TIMELY PREFETCHES:          0 LATE PREFETCHES: 0 DROPPED PREFETCHES: 0
LLC2 AVERAGE MISS LATENCY: 1997.69 cycles
LLC3 TOTAL     ACCESS: 2345582  HIT: 917429  MISS: 1428153  HIT %: 39.1131  MISS %: 60.8869  AVERAGE MISS PENALTY: 2002.66
LLC3 LOAD      ACCESS: 41362  HIT:    19  MISS: 41343  HIT %: 0.0459359  MISS %: 99.9541  AVERAGE MISS PENALTY: 2126.74
LLC3 RFO       ACCESS: 1023414  HIT: 124375  MISS: 899039  HIT %: 12.153  MISS %: 87.847  AVERAGE MISS PENALTY: 2426.62
LLC3 PREFETCH  ACCESS: 257194  HIT:     2  MISS: 257192  HIT %: 0.000777623  MISS %: 99.9992  AVERAGE MISS PENALTY: 2296.14
LLC3 WRITEBACK ACCESS: 1023612  HIT: 793033  MISS: 230579  HIT %: 77.474  MISS %: 22.526  AVERAGE MISS PENALTY: 0
LLC3 PREFETCH  REQUESTED:     0  ISSUED:     0  USEFUL:    17  USELESS: 2064908
 USEFUL LOAD PREFETCHES:         17 PREFETCH ISSUED TO LOWER LEVEL:  686869629  ACCURACY: 2.475e-06
 TIMELY PREFETCHES:         17 LATE PREFETCHES: 0 DROPPED PREFETCHES: 0
LLC3 AVERAGE MISS LATENCY: 2002.66 cycles
LLC4 TOTAL     ACCESS: 2346719  HIT: 918763  MISS: 1427956  HIT %: 39.151  MISS %: 60.849  AVERAGE MISS PENALTY: 2035.49
LLC4 LOAD      ACCESS: 39690  HIT:     0  MISS: 39690  HIT %:     0  MISS %:   100  AVERAGE MISS PENALTY: 2113.93
LLC4 RFO       ACCESS: 1023974  HIT: 124828  MISS: 899146  HIT %: 12.1905  MISS %: 87.8095  AVERAGE MISS PENALTY: 2500.72
LLC4 PREFETCH  ACCESS: 258861  HIT:    24  MISS: 258837  HIT %: 0.00927139  MISS %: 99.9907  AVERAGE MISS PENALTY: 2218.32
LLC4 WRITEBACK ACCESS: 1024194  HIT: 793911  MISS: 230283  HIT %: 77.5157  MISS %: 22.4843  AVERAGE MISS PENALTY: 0
LLC4 PREFETCH  REQUESTED:     0  ISSUED:     0  USEFUL:     0  USELESS: 2079455
 USEFUL LOAD PREFETCHES:          0 PREFETCH ISSUED TO LOWER LEVEL:  768256197  ACCURACY: 0
 TIMELY PREFETCHES:          0 LATE PREFETCHES: 0 DROPPED PREFETCHES: 0
LLC4 AVERAGE MISS LATENCY: 2035.49 cycles
LLC5 TOTAL     ACCESS: 2346074  HIT: 919062  MISS: 1427012  HIT %: 39.1745  MISS %: 60.8255  AVERAGE MISS PENALTY: 2032.55
LLC5 LOAD      ACCESS: 40520  HIT:     0  MISS: 40520  HIT %:     0  MISS %:   100  AVERAGE MISS PENALTY: 2094.31
LLC5 RFO       ACCESS: 1023673  HIT: 124585  MISS: 899088  HIT %: 12.1704  MISS %: 87.8296  AVERAGE MISS PENALTY: 2495.14
LLC5 PREFETCH  ACCESS: 258037  HIT:    27  MISS: 258010  HIT %: 0.0104636  MISS %: 99.9895  AVERAGE MISS PENALTY: 2217.95
LLC5 WRITEBACK ACCESS: 1023844  HIT: 794450  MISS: 229394  HIT %: 77.5948  MISS %: 22.4052  AVERAGE MISS PENALTY: 0
LLC5 PREFETCH  REQUESTED:     0  ISSUED:     0  USEFUL:     0  USELESS: 2075785
 USEFUL LOAD PREFETCHES:          0 PREFETCH ISSUED TO LOWER LEVEL:  770447768  ACCURACY: 0
 TIMELY PREFETCHES:          0 LATE PREFETCHES: 0 DROPPED PREFETCHES: 0
LLC5 AVERAGE MISS LATENCY: 2032.55 cycles
LLC6 TOTAL     ACCESS: 2346469  HIT: 918477  MISS: 1427992  HIT %: 39.1429  MISS %: 60.8571  AVERAGE MISS PENALTY: 2007.6
LLC6 LOAD      ACCESS: 40616  HIT:     0  MISS: 40616  HIT %:     0  MISS %:   100  AVERAGE MISS PENALTY: 2142.24
LLC6 RFO       ACCESS: 1023671  HIT: 124585  MISS: 899086  HIT %: 12.1704  MISS %: 87.8296  AVERAGE MISS PENALTY: 2436.75
LLC6 PREFETCH  ACCESS: 258409  HIT:   343  MISS: 258066  HIT %: 0.132735  MISS %: 99.8673  AVERAGE MISS PENALTY: 2282.29
LLC6 WRITEBACK ACCESS: 1023773  HIT: 793549  MISS: 230224  HIT %: 77.5122  MISS %: 22.4878  AVERAGE MISS PENALTY: 0
LLC6 PREFETCH  REQUESTED:     0  ISSUED:     0  USEFUL:     0  USELESS: 2073736
 USEFUL LOAD PREFETCHES:          0 PREFETCH ISSUED TO LOWER LEVEL: 1090287522  ACCURACY: 0
 TIMELY PREFETCHES:          0 LATE PREFETCHES: 0 DROPPED PREFETCHES: 0
LLC6 AVERAGE MISS LATENCY: 2007.6 cycles
LLC7 TOTAL     ACCESS: 2346846  HIT: 919996  MISS: 1426850  HIT %: 39.2014  MISS %: 60.7986  AVERAGE MISS PENALTY: 2008.16
LLC7 LOAD      ACCESS: 40595  HIT:     0  MISS: 40595  HIT %:     0  MISS %:   100  AVERAGE MISS PENALTY: 2150.81
LLC7 RFO       ACCESS: 1023850  HIT: 124696  MISS: 899154  HIT %: 12.1791  MISS %: 87.8209  AVERAGE MISS PENALTY: 2434.59
LLC7 PREFETCH  ACCESS: 258426  HIT:   328  MISS: 258098  HIT %: 0.126922  MISS %: 99.8731  AVERAGE MISS PENALTY: 2281.88
LLC7 WRITEBACK ACCESS: 1023975  HIT: 794972  MISS: 229003  HIT %: 77.6359  MISS %: 22.3641  AVERAGE MISS PENALTY: 0
LLC7 PREFETCH  REQUESTED:     0  ISSUED:     0  USEFUL:     0  USELESS: 2072686
 USEFUL LOAD PREFETCHES:          0 PREFETCH ISSUED TO LOWER LEVEL: 1105057150  ACCURACY: 0
 TIMELY PREFETCHES:          0 LATE PREFETCHES: 0 DROPPED PREFETCHES: 0
LLC7 AVERAGE MISS LATENCY: 2008.16 cycles
ROI Average ROB Stall Cycles:	123.774
ROI Total ROB Stalls Cycles:	1558536189
ROI TOTAL ROB counter      :	12591768
ROI Average Load ROB Stall Cycles:	797.976
ROI Total Load ROB Stalls Cycle  :	1494741014
ROI Total Load ROB stalls Counter:	1873165
Major fault: 0 Minor fault: 152173








Interconnect Stats 
LINK 0 BW : 0LINK 1 BW : 0LINK 2 BW : 0LINK 3 BW : 0LINK 4 BW : 0LINK 5 BW : 0LINK 6 BW : 0LINK 7 BW : 0
DRAM Statistics
 CHANNEL 0
 RQ ROW_BUFFER_HIT: 14219138  ROW_BUFFER_MISS: 24238221
 DBUS_CONGESTED: 91499909
 WQ ROW_BUFFER_HIT: 716600  ROW_BUFFER_MISS: 28733809  FULL:    56

 CHANNEL 1
 RQ ROW_BUFFER_HIT: 14213170  ROW_BUFFER_MISS: 24244109
 DBUS_CONGESTED: 91499909
 WQ ROW_BUFFER_HIT: 714299  ROW_BUFFER_MISS: 28737402  FULL:   113

 AVG_CONGESTED_CYCLE: 6
DRAM PAGES: 2097152
Allocated PAGES: 1217741
L2C destructor called
L1D destructor called
L1I destructor called
STLB destructor called
DTLB destructor called
ITLB destructor called
L2C destructor called
L1D destructor called
L1I destructor called
STLB destructor called
DTLB destructor called
ITLB destructor called
L2C destructor called
L1D destructor called
L1I destructor called
STLB destructor called
DTLB destructor called
ITLB destructor called
L2C destructor called
L1D destructor called
L1I destructor called
STLB destructor called
DTLB destructor called
ITLB destructor called
L2C destructor called
L1D destructor called
L1I destructor called
STLB destructor called
DTLB destructor called
ITLB destructor called
L2C destructor called
L1D destructor called
L1I destructor called
STLB destructor called
DTLB destructor called
ITLB destructor called
L2C destructor called
L1D destructor called
L1I destructor called
STLB destructor called
DTLB destructor called
ITLB destructor called
L2C destructor called
L1D destructor called
L1I destructor called
STLB destructor called
DTLB destructor called
ITLB destructor called
