
*** ChampSim Multicore Out-of-Order Simulator ***

Warmup Instructions: 200000000
Simulation Instructions: 200000000
Number of CPUs: 8
threads:1

L1I Configuration:
L1I_SET:64
L1I_WAY:8
L1I_RQ_SIZE:64
L1I_WQ_SIZE:64
L1I_PQ_SIZE:8
L1I_MSHR_SIZE:8

L1D Configuration:
L1D_SET:64
L1D_WAY:12
L1D_RQ_SIZE:64
L1D_WQ_SIZE:64
L1D_PQ_SIZE:8
L1D_MSHR_SIZE:16

L2C Configuration:
L2C_SET:1024
L2C_WAY:8
L2C_RQ_SIZE:32
L2C_WQ_SIZE:32
L2C_PQ_SIZE:16
L2C_MSHR_SIZE:32

LLC Configuration:
LLC_SET:2048
LLC_WAY:16
LLC SLICES:8
LLC_RQ_SIZE:64
LLC_WQ_SIZE:64
LLC_PQ_SIZE:32
LLC_MSHR_SIZE:64

Interconnect OFF
Attacker deprioritize is: OFF
Off-chip DRAM Size: 8192 MB Channels: 2 Width: 64-bit Data Rate: 3200 MT/s
PAGE SIZE in KB: 4.000000 
PAGE SIZE in MB: 0.003906 
PAGE offset in bits: 12 
CEASER-S_LLC:0
MIRAGE : 1
CEASER_LATENCY:3
REMAP : OFF
Partitions : 1
Multi-Step : OFF
BFS : OFF

CPU 0 runs /home/anubhav/spec_2017/620.omnetpp_s-874B.champsimtrace.xz
CPU 1 runs /home/anubhav/spec_2017/620.omnetpp_s-874B.champsimtrace.xz
CPU 2 runs /home/anubhav/spec_2017/620.omnetpp_s-874B.champsimtrace.xz
CPU 3 runs /home/anubhav/spec_2017/620.omnetpp_s-874B.champsimtrace.xz
CPU 4 runs /home/anubhav/spec_2017/620.omnetpp_s-874B.champsimtrace.xz
CPU 5 runs /home/anubhav/spec_2017/620.omnetpp_s-874B.champsimtrace.xz
CPU 6 runs /home/anubhav/spec_2017/620.omnetpp_s-874B.champsimtrace.xz
CPU 7 runs /home/anubhav/spec_2017/620.omnetpp_s-874B.champsimtrace.xz
CPU 0 Bimodal branch predictor
Initialize Hawkeye state
Initialize Hawkeye state
Initialize Hawkeye state
Initialize Hawkeye state
Initialize Hawkeye state
Initialize Hawkeye state
Initialize Hawkeye state
Initialize Hawkeye state
CPU 1 Bimodal branch predictor
Initialize Hawkeye state
Initialize Hawkeye state
Initialize Hawkeye state
Initialize Hawkeye state
Initialize Hawkeye state
Initialize Hawkeye state
Initialize Hawkeye state
Initialize Hawkeye state
CPU 2 Bimodal branch predictor
Initialize Hawkeye state
Initialize Hawkeye state
Initialize Hawkeye state
Initialize Hawkeye state
Initialize Hawkeye state
Initialize Hawkeye state
Initialize Hawkeye state
Initialize Hawkeye state
CPU 3 Bimodal branch predictor
Initialize Hawkeye state
Initialize Hawkeye state
Initialize Hawkeye state
Initialize Hawkeye state
Initialize Hawkeye state
Initialize Hawkeye state
Initialize Hawkeye state
Initialize Hawkeye state
CPU 4 Bimodal branch predictor
Initialize Hawkeye state
Initialize Hawkeye state
Initialize Hawkeye state
Initialize Hawkeye state
Initialize Hawkeye state
Initialize Hawkeye state
Initialize Hawkeye state
Initialize Hawkeye state
CPU 5 Bimodal branch predictor
Initialize Hawkeye state
Initialize Hawkeye state
Initialize Hawkeye state
Initialize Hawkeye state
Initialize Hawkeye state
Initialize Hawkeye state
Initialize Hawkeye state
Initialize Hawkeye state
CPU 6 Bimodal branch predictor
Initialize Hawkeye state
Initialize Hawkeye state
Initialize Hawkeye state
Initialize Hawkeye state
Initialize Hawkeye state
Initialize Hawkeye state
Initialize Hawkeye state
Initialize Hawkeye state
CPU 7 Bimodal branch predictor
Initialize Hawkeye state
Initialize Hawkeye state
Initialize Hawkeye state
Initialize Hawkeye state
Initialize Hawkeye state
Initialize Hawkeye state
Initialize Hawkeye state
Initialize Hawkeye state
Heartbeat CPU 2 instructions: 10000000 cycles: 8849736 heartbeat IPC: 1.12998 cumulative IPC: 1.12998 (Simulation time: 3 hr 45 min 27 sec) 
 Total Blocks : 262144 Invalid Blocks : 576
Heartbeat CPU 4 instructions: 10000000 cycles: 8849798 heartbeat IPC: 1.12997 cumulative IPC: 1.12997 (Simulation time: 3 hr 45 min 27 sec) 
 Total Blocks : 262144 Invalid Blocks : 576
Heartbeat CPU 3 instructions: 10000000 cycles: 8849840 heartbeat IPC: 1.12996 cumulative IPC: 1.12996 (Simulation time: 3 hr 45 min 27 sec) 
 Total Blocks : 262144 Invalid Blocks : 576
Heartbeat CPU 0 instructions: 10000000 cycles: 8849941 heartbeat IPC: 1.12995 cumulative IPC: 1.12995 (Simulation time: 3 hr 45 min 28 sec) 
 Total Blocks : 262144 Invalid Blocks : 576
Heartbeat CPU 1 instructions: 10000000 cycles: 8849957 heartbeat IPC: 1.12995 cumulative IPC: 1.12995 (Simulation time: 3 hr 45 min 28 sec) 
 Total Blocks : 262144 Invalid Blocks : 576
Heartbeat CPU 5 instructions: 10000000 cycles: 8850044 heartbeat IPC: 1.12994 cumulative IPC: 1.12994 (Simulation time: 3 hr 45 min 28 sec) 
 Total Blocks : 262144 Invalid Blocks : 576
Heartbeat CPU 6 instructions: 10000000 cycles: 8850053 heartbeat IPC: 1.12994 cumulative IPC: 1.12994 (Simulation time: 3 hr 45 min 28 sec) 
 Total Blocks : 262144 Invalid Blocks : 576
Heartbeat CPU 7 instructions: 10000000 cycles: 8850060 heartbeat IPC: 1.12994 cumulative IPC: 1.12994 (Simulation time: 3 hr 45 min 28 sec) 
 Total Blocks : 262144 Invalid Blocks : 576
Heartbeat CPU 2 instructions: 20000003 cycles: 17581839 heartbeat IPC: 1.1452 cumulative IPC: 1.13754 (Simulation time: 8 hr 15 min 48 sec) 
 Total Blocks : 262144 Invalid Blocks : 3
Heartbeat CPU 4 instructions: 20000003 cycles: 17582015 heartbeat IPC: 1.14518 cumulative IPC: 1.13753 (Simulation time: 8 hr 15 min 48 sec) 
 Total Blocks : 262144 Invalid Blocks : 3
Heartbeat CPU 0 instructions: 20000003 cycles: 17582072 heartbeat IPC: 1.1452 cumulative IPC: 1.13752 (Simulation time: 8 hr 15 min 48 sec) 
 Total Blocks : 262144 Invalid Blocks : 3
Heartbeat CPU 1 instructions: 20000003 cycles: 17582076 heartbeat IPC: 1.1452 cumulative IPC: 1.13752 (Simulation time: 8 hr 15 min 48 sec) 
 Total Blocks : 262144 Invalid Blocks : 3
Heartbeat CPU 5 instructions: 20000003 cycles: 17582141 heartbeat IPC: 1.1452 cumulative IPC: 1.13752 (Simulation time: 8 hr 15 min 48 sec) 
 Total Blocks : 262144 Invalid Blocks : 3
Heartbeat CPU 7 instructions: 20000003 cycles: 17582162 heartbeat IPC: 1.1452 cumulative IPC: 1.13752 (Simulation time: 8 hr 15 min 48 sec) 
 Total Blocks : 262144 Invalid Blocks : 3
Heartbeat CPU 3 instructions: 20000003 cycles: 17582186 heartbeat IPC: 1.14517 cumulative IPC: 1.13752 (Simulation time: 8 hr 15 min 48 sec) 
 Total Blocks : 262144 Invalid Blocks : 3
Heartbeat CPU 6 instructions: 20000003 cycles: 17582288 heartbeat IPC: 1.14518 cumulative IPC: 1.13751 (Simulation time: 8 hr 15 min 48 sec) 
 Total Blocks : 262144 Invalid Blocks : 3
Heartbeat CPU 4 instructions: 30000001 cycles: 26332876 heartbeat IPC: 1.14274 cumulative IPC: 1.13926 (Simulation time: 12 hr 22 min 34 sec) 
 Total Blocks : 262144 Invalid Blocks : 0
Heartbeat CPU 1 instructions: 30000001 cycles: 26333052 heartbeat IPC: 1.14273 cumulative IPC: 1.13925 (Simulation time: 12 hr 22 min 34 sec) 
 Total Blocks : 262144 Invalid Blocks : 0
Heartbeat CPU 2 instructions: 30000001 cycles: 26333153 heartbeat IPC: 1.14269 cumulative IPC: 1.13925 (Simulation time: 12 hr 22 min 34 sec) 
 Total Blocks : 262144 Invalid Blocks : 0
Heartbeat CPU 0 instructions: 30000001 cycles: 26333216 heartbeat IPC: 1.14271 cumulative IPC: 1.13925 (Simulation time: 12 hr 22 min 34 sec) 
 Total Blocks : 262144 Invalid Blocks : 0
Heartbeat CPU 6 instructions: 30000001 cycles: 26333358 heartbeat IPC: 1.14272 cumulative IPC: 1.13924 (Simulation time: 12 hr 22 min 34 sec) 
 Total Blocks : 262144 Invalid Blocks : 0
Heartbeat CPU 3 instructions: 30000001 cycles: 26333529 heartbeat IPC: 1.14268 cumulative IPC: 1.13923 (Simulation time: 12 hr 22 min 34 sec) 
 Total Blocks : 262144 Invalid Blocks : 0
Heartbeat CPU 5 instructions: 30000001 cycles: 26333619 heartbeat IPC: 1.14266 cumulative IPC: 1.13923 (Simulation time: 12 hr 22 min 35 sec) 
 Total Blocks : 262144 Invalid Blocks : 0
Heartbeat CPU 7 instructions: 30000001 cycles: 26333697 heartbeat IPC: 1.14266 cumulative IPC: 1.13922 (Simulation time: 12 hr 22 min 35 sec) 
 Total Blocks : 262144 Invalid Blocks : 0
Heartbeat CPU 4 instructions: 40000000 cycles: 35147211 heartbeat IPC: 1.13452 cumulative IPC: 1.13807 (Simulation time: 16 hr 23 min 4 sec) 
 Total Blocks : 262144 Invalid Blocks : 0
Heartbeat CPU 0 instructions: 40000000 cycles: 35147545 heartbeat IPC: 1.13452 cumulative IPC: 1.13806 (Simulation time: 16 hr 23 min 8 sec) 
 Total Blocks : 262144 Invalid Blocks : 0
Heartbeat CPU 1 instructions: 40000000 cycles: 35147663 heartbeat IPC: 1.13448 cumulative IPC: 1.13806 (Simulation time: 16 hr 23 min 9 sec) 
 Total Blocks : 262144 Invalid Blocks : 0
Heartbeat CPU 6 instructions: 40000000 cycles: 35147725 heartbeat IPC: 1.13451 cumulative IPC: 1.13805 (Simulation time: 16 hr 23 min 9 sec) 
 Total Blocks : 262144 Invalid Blocks : 0
Heartbeat CPU 5 instructions: 40000000 cycles: 35147988 heartbeat IPC: 1.13451 cumulative IPC: 1.13805 (Simulation time: 16 hr 23 min 11 sec) 
 Total Blocks : 262144 Invalid Blocks : 0
Heartbeat CPU 3 instructions: 40000000 cycles: 35148013 heartbeat IPC: 1.1345 cumulative IPC: 1.13804 (Simulation time: 16 hr 23 min 11 sec) 
 Total Blocks : 262144 Invalid Blocks : 0
Heartbeat CPU 2 instructions: 40000000 cycles: 35148023 heartbeat IPC: 1.13445 cumulative IPC: 1.13804 (Simulation time: 16 hr 23 min 11 sec) 
 Total Blocks : 262144 Invalid Blocks : 0
Heartbeat CPU 7 instructions: 40000000 cycles: 35148512 heartbeat IPC: 1.13445 cumulative IPC: 1.13803 (Simulation time: 16 hr 23 min 12 sec) 
 Total Blocks : 262144 Invalid Blocks : 0
Heartbeat CPU 4 instructions: 50000000 cycles: 43996076 heartbeat IPC: 1.13009 cumulative IPC: 1.13646 (Simulation time: 19 hr 24 min 4 sec) 
 Total Blocks : 262144 Invalid Blocks : 0
Heartbeat CPU 1 instructions: 50000000 cycles: 43996564 heartbeat IPC: 1.13008 cumulative IPC: 1.13645 (Simulation time: 19 hr 24 min 4 sec) 
 Total Blocks : 262144 Invalid Blocks : 0
Heartbeat CPU 0 instructions: 50000000 cycles: 43996657 heartbeat IPC: 1.13006 cumulative IPC: 1.13645 (Simulation time: 19 hr 24 min 4 sec) 
 Total Blocks : 262144 Invalid Blocks : 0
Heartbeat CPU 6 instructions: 50000000 cycles: 43996712 heartbeat IPC: 1.13007 cumulative IPC: 1.13645 (Simulation time: 19 hr 24 min 4 sec) 
 Total Blocks : 262144 Invalid Blocks : 0
Heartbeat CPU 3 instructions: 50000000 cycles: 43997119 heartbeat IPC: 1.13006 cumulative IPC: 1.13644 (Simulation time: 19 hr 24 min 4 sec) 
 Total Blocks : 262144 Invalid Blocks : 0
Heartbeat CPU 2 instructions: 50000000 cycles: 43997125 heartbeat IPC: 1.13006 cumulative IPC: 1.13644 (Simulation time: 19 hr 24 min 4 sec) 
 Total Blocks : 262144 Invalid Blocks : 0
Heartbeat CPU 5 instructions: 50000000 cycles: 43997146 heartbeat IPC: 1.13005 cumulative IPC: 1.13644 (Simulation time: 19 hr 24 min 4 sec) 
 Total Blocks : 262144 Invalid Blocks : 0
Heartbeat CPU 7 instructions: 50000000 cycles: 43997673 heartbeat IPC: 1.13005 cumulative IPC: 1.13642 (Simulation time: 19 hr 24 min 4 sec) 
 Total Blocks : 262144 Invalid Blocks : 0
Heartbeat CPU 4 instructions: 60000000 cycles: 52848562 heartbeat IPC: 1.12963 cumulative IPC: 1.13532 (Simulation time: 20 hr 17 min 37 sec) 
 Total Blocks : 262144 Invalid Blocks : 0
Heartbeat CPU 1 instructions: 60000000 cycles: 52849340 heartbeat IPC: 1.12959 cumulative IPC: 1.1353 (Simulation time: 20 hr 17 min 38 sec) 
 Total Blocks : 262144 Invalid Blocks : 0
Heartbeat CPU 6 instructions: 60000000 cycles: 52849569 heartbeat IPC: 1.12958 cumulative IPC: 1.1353 (Simulation time: 20 hr 17 min 38 sec) 
 Total Blocks : 262144 Invalid Blocks : 0
Heartbeat CPU 0 instructions: 60000000 cycles: 52849661 heartbeat IPC: 1.12956 cumulative IPC: 1.1353 (Simulation time: 20 hr 17 min 38 sec) 
 Total Blocks : 262144 Invalid Blocks : 0
Heartbeat CPU 2 instructions: 60000000 cycles: 52849755 heartbeat IPC: 1.12961 cumulative IPC: 1.13529 (Simulation time: 20 hr 17 min 38 sec) 
 Total Blocks : 262144 Invalid Blocks : 0
Heartbeat CPU 5 instructions: 60000000 cycles: 52849756 heartbeat IPC: 1.12961 cumulative IPC: 1.13529 (Simulation time: 20 hr 17 min 38 sec) 
 Total Blocks : 262144 Invalid Blocks : 0
Heartbeat CPU 3 instructions: 60000000 cycles: 52849789 heartbeat IPC: 1.1296 cumulative IPC: 1.13529 (Simulation time: 20 hr 17 min 38 sec) 
 Total Blocks : 262144 Invalid Blocks : 0
Heartbeat CPU 7 instructions: 60000000 cycles: 52850553 heartbeat IPC: 1.12958 cumulative IPC: 1.13528 (Simulation time: 20 hr 17 min 38 sec) 
 Total Blocks : 262144 Invalid Blocks : 0
Heartbeat CPU 4 instructions: 70000000 cycles: 61656305 heartbeat IPC: 1.13536 cumulative IPC: 1.13533 (Simulation time: 20 hr 38 min 14 sec) 
 Total Blocks : 262144 Invalid Blocks : 0
Heartbeat CPU 1 instructions: 70000000 cycles: 61657134 heartbeat IPC: 1.13536 cumulative IPC: 1.13531 (Simulation time: 20 hr 38 min 14 sec) 
 Total Blocks : 262144 Invalid Blocks : 0
Heartbeat CPU 6 instructions: 70000000 cycles: 61657187 heartbeat IPC: 1.13538 cumulative IPC: 1.13531 (Simulation time: 20 hr 38 min 14 sec) 
 Total Blocks : 262144 Invalid Blocks : 0
Heartbeat CPU 5 instructions: 70000000 cycles: 61657469 heartbeat IPC: 1.13537 cumulative IPC: 1.1353 (Simulation time: 20 hr 38 min 14 sec) 
 Total Blocks : 262144 Invalid Blocks : 0
Heartbeat CPU 0 instructions: 70000000 cycles: 61657572 heartbeat IPC: 1.13534 cumulative IPC: 1.1353 (Simulation time: 20 hr 38 min 14 sec) 
 Total Blocks : 262144 Invalid Blocks : 0
Heartbeat CPU 2 instructions: 70000000 cycles: 61657718 heartbeat IPC: 1.13534 cumulative IPC: 1.1353 (Simulation time: 20 hr 38 min 14 sec) 
 Total Blocks : 262144 Invalid Blocks : 0
Heartbeat CPU 7 instructions: 70000000 cycles: 61657801 heartbeat IPC: 1.13543 cumulative IPC: 1.1353 (Simulation time: 20 hr 38 min 14 sec) 
 Total Blocks : 262144 Invalid Blocks : 0
Heartbeat CPU 3 instructions: 70000000 cycles: 61657811 heartbeat IPC: 1.13533 cumulative IPC: 1.1353 (Simulation time: 20 hr 38 min 14 sec) 
 Total Blocks : 262144 Invalid Blocks : 0
Heartbeat CPU 4 instructions: 80000000 cycles: 70452797 heartbeat IPC: 1.13682 cumulative IPC: 1.13551 (Simulation time: 20 hr 56 min 16 sec) 
 Total Blocks : 262144 Invalid Blocks : 0
Heartbeat CPU 1 instructions: 80000000 cycles: 70453359 heartbeat IPC: 1.13685 cumulative IPC: 1.1355 (Simulation time: 20 hr 56 min 16 sec) 
 Total Blocks : 262144 Invalid Blocks : 0
Heartbeat CPU 6 instructions: 80000000 cycles: 70453666 heartbeat IPC: 1.13682 cumulative IPC: 1.1355 (Simulation time: 20 hr 56 min 17 sec) 
 Total Blocks : 262144 Invalid Blocks : 0
Heartbeat CPU 0 instructions: 80000000 cycles: 70453811 heartbeat IPC: 1.13685 cumulative IPC: 1.1355 (Simulation time: 20 hr 56 min 17 sec) 
 Total Blocks : 262144 Invalid Blocks : 0
Heartbeat CPU 5 instructions: 80000000 cycles: 70454157 heartbeat IPC: 1.13679 cumulative IPC: 1.13549 (Simulation time: 20 hr 56 min 17 sec) 
 Total Blocks : 262144 Invalid Blocks : 0
Heartbeat CPU 7 instructions: 80000000 cycles: 70454304 heartbeat IPC: 1.13682 cumulative IPC: 1.13549 (Simulation time: 20 hr 56 min 17 sec) 
 Total Blocks : 262144 Invalid Blocks : 0
Heartbeat CPU 2 instructions: 80000000 cycles: 70454446 heartbeat IPC: 1.13679 cumulative IPC: 1.13549 (Simulation time: 20 hr 56 min 17 sec) 
 Total Blocks : 262144 Invalid Blocks : 0
Heartbeat CPU 3 instructions: 80000000 cycles: 70454505 heartbeat IPC: 1.13679 cumulative IPC: 1.13548 (Simulation time: 20 hr 56 min 17 sec) 
 Total Blocks : 262144 Invalid Blocks : 0
Heartbeat CPU 4 instructions: 90000000 cycles: 79288507 heartbeat IPC: 1.13177 cumulative IPC: 1.1351 (Simulation time: 21 hr 15 min 38 sec) 
 Total Blocks : 262144 Invalid Blocks : 0
Heartbeat CPU 1 instructions: 90000000 cycles: 79289510 heartbeat IPC: 1.13171 cumulative IPC: 1.13508 (Simulation time: 21 hr 15 min 38 sec) 
 Total Blocks : 262144 Invalid Blocks : 0
Heartbeat CPU 0 instructions: 90000000 cycles: 79289741 heartbeat IPC: 1.13174 cumulative IPC: 1.13508 (Simulation time: 21 hr 15 min 38 sec) 
 Total Blocks : 262144 Invalid Blocks : 0
Heartbeat CPU 6 instructions: 90000000 cycles: 79289864 heartbeat IPC: 1.13171 cumulative IPC: 1.13508 (Simulation time: 21 hr 15 min 38 sec) 
 Total Blocks : 262144 Invalid Blocks : 0
Heartbeat CPU 5 instructions: 90000000 cycles: 79290305 heartbeat IPC: 1.13171 cumulative IPC: 1.13507 (Simulation time: 21 hr 15 min 38 sec) 
 Total Blocks : 262144 Invalid Blocks : 0
Heartbeat CPU 2 instructions: 90000000 cycles: 79290766 heartbeat IPC: 1.13169 cumulative IPC: 1.13506 (Simulation time: 21 hr 15 min 38 sec) 
 Total Blocks : 262144 Invalid Blocks : 0
Heartbeat CPU 3 instructions: 90000000 cycles: 79290778 heartbeat IPC: 1.1317 cumulative IPC: 1.13506 (Simulation time: 21 hr 15 min 38 sec) 
 Total Blocks : 262144 Invalid Blocks : 0
Heartbeat CPU 7 instructions: 90000000 cycles: 79290902 heartbeat IPC: 1.13166 cumulative IPC: 1.13506 (Simulation time: 21 hr 15 min 38 sec) 
 Total Blocks : 262144 Invalid Blocks : 0
Heartbeat CPU 4 instructions: 100000003 cycles: 88200541 heartbeat IPC: 1.12208 cumulative IPC: 1.13378 (Simulation time: 21 hr 34 min 34 sec) 
 Total Blocks : 262144 Invalid Blocks : 0
Heartbeat CPU 1 instructions: 100000003 cycles: 88201481 heartbeat IPC: 1.12209 cumulative IPC: 1.13377 (Simulation time: 21 hr 34 min 35 sec) 
 Total Blocks : 262144 Invalid Blocks : 0
Heartbeat CPU 0 instructions: 100000003 cycles: 88201856 heartbeat IPC: 1.12207 cumulative IPC: 1.13376 (Simulation time: 21 hr 34 min 35 sec) 
 Total Blocks : 262144 Invalid Blocks : 0
Heartbeat CPU 6 instructions: 100000003 cycles: 88201910 heartbeat IPC: 1.12208 cumulative IPC: 1.13376 (Simulation time: 21 hr 34 min 35 sec) 
 Total Blocks : 262144 Invalid Blocks : 0
Heartbeat CPU 5 instructions: 100000003 cycles: 88202167 heartbeat IPC: 1.1221 cumulative IPC: 1.13376 (Simulation time: 21 hr 34 min 35 sec) 
 Total Blocks : 262144 Invalid Blocks : 0
Heartbeat CPU 2 instructions: 100000003 cycles: 88202904 heartbeat IPC: 1.12207 cumulative IPC: 1.13375 (Simulation time: 21 hr 34 min 35 sec) 
 Total Blocks : 262144 Invalid Blocks : 0
Heartbeat CPU 3 instructions: 100000003 cycles: 88203027 heartbeat IPC: 1.12205 cumulative IPC: 1.13375 (Simulation time: 21 hr 34 min 35 sec) 
 Total Blocks : 262144 Invalid Blocks : 0
Heartbeat CPU 7 instructions: 100000003 cycles: 88203079 heartbeat IPC: 1.12206 cumulative IPC: 1.13375 (Simulation time: 21 hr 34 min 35 sec) 
 Total Blocks : 262144 Invalid Blocks : 0
Heartbeat CPU 4 instructions: 110000000 cycles: 97015392 heartbeat IPC: 1.13445 cumulative IPC: 1.13384 (Simulation time: 21 hr 54 min 3 sec) 
 Total Blocks : 262144 Invalid Blocks : 0
Heartbeat CPU 1 instructions: 110000000 cycles: 97016531 heartbeat IPC: 1.13442 cumulative IPC: 1.13383 (Simulation time: 21 hr 54 min 4 sec) 
 Total Blocks : 262144 Invalid Blocks : 0
Heartbeat CPU 0 instructions: 110000000 cycles: 97017094 heartbeat IPC: 1.1344 cumulative IPC: 1.13382 (Simulation time: 21 hr 54 min 4 sec) 
 Total Blocks : 262144 Invalid Blocks : 0
Heartbeat CPU 5 instructions: 110000000 cycles: 97017142 heartbeat IPC: 1.13443 cumulative IPC: 1.13382 (Simulation time: 21 hr 54 min 4 sec) 
 Total Blocks : 262144 Invalid Blocks : 0
Heartbeat CPU 6 instructions: 110000000 cycles: 97017229 heartbeat IPC: 1.13439 cumulative IPC: 1.13382 (Simulation time: 21 hr 54 min 4 sec) 
 Total Blocks : 262144 Invalid Blocks : 0
Heartbeat CPU 2 instructions: 110000000 cycles: 97017781 heartbeat IPC: 1.13445 cumulative IPC: 1.13381 (Simulation time: 21 hr 54 min 4 sec) 
 Total Blocks : 262144 Invalid Blocks : 0
Heartbeat CPU 3 instructions: 110000000 cycles: 97017898 heartbeat IPC: 1.13445 cumulative IPC: 1.13381 (Simulation time: 21 hr 54 min 4 sec) 
 Total Blocks : 262144 Invalid Blocks : 0
Heartbeat CPU 7 instructions: 110000000 cycles: 97018385 heartbeat IPC: 1.13439 cumulative IPC: 1.13381 (Simulation time: 21 hr 54 min 4 sec) 
 Total Blocks : 262144 Invalid Blocks : 0
Heartbeat CPU 4 instructions: 120000003 cycles: 105819964 heartbeat IPC: 1.13577 cumulative IPC: 1.134 (Simulation time: 22 hr 12 min 8 sec) 
 Total Blocks : 262144 Invalid Blocks : 0
Heartbeat CPU 1 instructions: 120000003 cycles: 105820940 heartbeat IPC: 1.13579 cumulative IPC: 1.13399 (Simulation time: 22 hr 12 min 8 sec) 
 Total Blocks : 262144 Invalid Blocks : 0
Heartbeat CPU 5 instructions: 120000003 cycles: 105821476 heartbeat IPC: 1.1358 cumulative IPC: 1.13399 (Simulation time: 22 hr 12 min 8 sec) 
 Total Blocks : 262144 Invalid Blocks : 0
Heartbeat CPU 6 instructions: 120000003 cycles: 105821573 heartbeat IPC: 1.1358 cumulative IPC: 1.13398 (Simulation time: 22 hr 12 min 8 sec) 
 Total Blocks : 262144 Invalid Blocks : 0
Heartbeat CPU 0 instructions: 120000003 cycles: 105821642 heartbeat IPC: 1.13578 cumulative IPC: 1.13398 (Simulation time: 22 hr 12 min 8 sec) 
 Total Blocks : 262144 Invalid Blocks : 0
Heartbeat CPU 2 instructions: 120000003 cycles: 105822243 heartbeat IPC: 1.13579 cumulative IPC: 1.13398 (Simulation time: 22 hr 12 min 8 sec) 
 Total Blocks : 262144 Invalid Blocks : 0
Heartbeat CPU 3 instructions: 120000003 cycles: 105822547 heartbeat IPC: 1.13576 cumulative IPC: 1.13397 (Simulation time: 22 hr 12 min 8 sec) 
 Total Blocks : 262144 Invalid Blocks : 0
Heartbeat CPU 7 instructions: 120000003 cycles: 105822706 heartbeat IPC: 1.13581 cumulative IPC: 1.13397 (Simulation time: 22 hr 12 min 8 sec) 
 Total Blocks : 262144 Invalid Blocks : 0
Heartbeat CPU 4 instructions: 130000000 cycles: 114642641 heartbeat IPC: 1.13344 cumulative IPC: 1.13396 (Simulation time: 22 hr 31 min 3 sec) 
 Total Blocks : 262144 Invalid Blocks : 0
Heartbeat CPU 1 instructions: 130000000 cycles: 114643444 heartbeat IPC: 1.13346 cumulative IPC: 1.13395 (Simulation time: 22 hr 31 min 3 sec) 
 Total Blocks : 262144 Invalid Blocks : 0
Heartbeat CPU 5 instructions: 130000000 cycles: 114643972 heartbeat IPC: 1.13347 cumulative IPC: 1.13395 (Simulation time: 22 hr 31 min 3 sec) 
 Total Blocks : 262144 Invalid Blocks : 0
Heartbeat CPU 6 instructions: 130000000 cycles: 114644144 heartbeat IPC: 1.13346 cumulative IPC: 1.13394 (Simulation time: 22 hr 31 min 3 sec) 
 Total Blocks : 262144 Invalid Blocks : 0
Heartbeat CPU 0 instructions: 130000000 cycles: 114644420 heartbeat IPC: 1.13343 cumulative IPC: 1.13394 (Simulation time: 22 hr 31 min 3 sec) 
 Total Blocks : 262144 Invalid Blocks : 0
Heartbeat CPU 2 instructions: 130000000 cycles: 114644827 heartbeat IPC: 1.13345 cumulative IPC: 1.13394 (Simulation time: 22 hr 31 min 3 sec) 
 Total Blocks : 262144 Invalid Blocks : 0
Heartbeat CPU 7 instructions: 130000000 cycles: 114645228 heartbeat IPC: 1.13346 cumulative IPC: 1.13393 (Simulation time: 22 hr 31 min 3 sec) 
 Total Blocks : 262144 Invalid Blocks : 0
Heartbeat CPU 3 instructions: 130000000 cycles: 114645303 heartbeat IPC: 1.13343 cumulative IPC: 1.13393 (Simulation time: 22 hr 31 min 3 sec) 
 Total Blocks : 262144 Invalid Blocks : 0
Heartbeat CPU 4 instructions: 140000000 cycles: 123475869 heartbeat IPC: 1.13209 cumulative IPC: 1.13382 (Simulation time: 22 hr 44 min 26 sec) 
 Total Blocks : 262144 Invalid Blocks : 0
Heartbeat CPU 1 instructions: 140000000 cycles: 123476869 heartbeat IPC: 1.13206 cumulative IPC: 1.13382 (Simulation time: 22 hr 44 min 26 sec) 
 Total Blocks : 262144 Invalid Blocks : 0
Heartbeat CPU 5 instructions: 140000000 cycles: 123477435 heartbeat IPC: 1.13206 cumulative IPC: 1.13381 (Simulation time: 22 hr 44 min 26 sec) 
 Total Blocks : 262144 Invalid Blocks : 0
Heartbeat CPU 0 instructions: 140000000 cycles: 123477813 heartbeat IPC: 1.13207 cumulative IPC: 1.13381 (Simulation time: 22 hr 44 min 26 sec) 
 Total Blocks : 262144 Invalid Blocks : 0
Heartbeat CPU 6 instructions: 140000000 cycles: 123477910 heartbeat IPC: 1.13202 cumulative IPC: 1.13381 (Simulation time: 22 hr 44 min 26 sec) 
 Total Blocks : 262144 Invalid Blocks : 0
Heartbeat CPU 2 instructions: 140000000 cycles: 123478571 heartbeat IPC: 1.13202 cumulative IPC: 1.1338 (Simulation time: 22 hr 44 min 26 sec) 
 Total Blocks : 262144 Invalid Blocks : 0
Heartbeat CPU 3 instructions: 140000000 cycles: 123478876 heartbeat IPC: 1.13204 cumulative IPC: 1.1338 (Simulation time: 22 hr 44 min 26 sec) 
 Total Blocks : 262144 Invalid Blocks : 0
Heartbeat CPU 7 instructions: 140000000 cycles: 123478924 heartbeat IPC: 1.13203 cumulative IPC: 1.1338 (Simulation time: 22 hr 44 min 26 sec) 
 Total Blocks : 262144 Invalid Blocks : 0
Heartbeat CPU 4 instructions: 150000001 cycles: 132336471 heartbeat IPC: 1.12859 cumulative IPC: 1.13347 (Simulation time: 22 hr 59 min 34 sec) 
 Total Blocks : 262144 Invalid Blocks : 0
Heartbeat CPU 1 instructions: 150000001 cycles: 132337806 heartbeat IPC: 1.12855 cumulative IPC: 1.13346 (Simulation time: 22 hr 59 min 34 sec) 
 Total Blocks : 262144 Invalid Blocks : 0
Heartbeat CPU 5 instructions: 150000001 cycles: 132338055 heartbeat IPC: 1.12859 cumulative IPC: 1.13346 (Simulation time: 22 hr 59 min 34 sec) 
 Total Blocks : 262144 Invalid Blocks : 0
Heartbeat CPU 0 instructions: 150000001 cycles: 132338489 heartbeat IPC: 1.12858 cumulative IPC: 1.13346 (Simulation time: 22 hr 59 min 34 sec) 
 Total Blocks : 262144 Invalid Blocks : 0
Heartbeat CPU 6 instructions: 150000001 cycles: 132338851 heartbeat IPC: 1.12855 cumulative IPC: 1.13345 (Simulation time: 22 hr 59 min 34 sec) 
 Total Blocks : 262144 Invalid Blocks : 0
Heartbeat CPU 2 instructions: 150000001 cycles: 132339328 heartbeat IPC: 1.12857 cumulative IPC: 1.13345 (Simulation time: 22 hr 59 min 34 sec) 
 Total Blocks : 262144 Invalid Blocks : 0
Heartbeat CPU 3 instructions: 150000001 cycles: 132339623 heartbeat IPC: 1.12857 cumulative IPC: 1.13345 (Simulation time: 22 hr 59 min 34 sec) 
 Total Blocks : 262144 Invalid Blocks : 0
Heartbeat CPU 7 instructions: 150000001 cycles: 132340199 heartbeat IPC: 1.12851 cumulative IPC: 1.13344 (Simulation time: 22 hr 59 min 35 sec) 
 Total Blocks : 262144 Invalid Blocks : 0
Heartbeat CPU 4 instructions: 160000000 cycles: 141163233 heartbeat IPC: 1.13292 cumulative IPC: 1.13344 (Simulation time: 23 hr 17 min 40 sec) 
 Total Blocks : 262144 Invalid Blocks : 0
Heartbeat CPU 1 instructions: 160000000 cycles: 141165028 heartbeat IPC: 1.13286 cumulative IPC: 1.13343 (Simulation time: 23 hr 17 min 40 sec) 
 Total Blocks : 262144 Invalid Blocks : 0
Heartbeat CPU 5 instructions: 160000000 cycles: 141165239 heartbeat IPC: 1.13286 cumulative IPC: 1.13342 (Simulation time: 23 hr 17 min 40 sec) 
 Total Blocks : 262144 Invalid Blocks : 0
Heartbeat CPU 0 instructions: 160000000 cycles: 141165728 heartbeat IPC: 1.13286 cumulative IPC: 1.13342 (Simulation time: 23 hr 17 min 40 sec) 
 Total Blocks : 262144 Invalid Blocks : 0
Heartbeat CPU 6 instructions: 160000000 cycles: 141166186 heartbeat IPC: 1.13284 cumulative IPC: 1.13342 (Simulation time: 23 hr 17 min 40 sec) 
 Total Blocks : 262144 Invalid Blocks : 0
Heartbeat CPU 2 instructions: 160000000 cycles: 141166580 heartbeat IPC: 1.13286 cumulative IPC: 1.13341 (Simulation time: 23 hr 17 min 40 sec) 
 Total Blocks : 262144 Invalid Blocks : 0
Heartbeat CPU 3 instructions: 160000000 cycles: 141166762 heartbeat IPC: 1.13287 cumulative IPC: 1.13341 (Simulation time: 23 hr 17 min 40 sec) 
 Total Blocks : 262144 Invalid Blocks : 0
Heartbeat CPU 7 instructions: 160000000 cycles: 141167435 heartbeat IPC: 1.13286 cumulative IPC: 1.13341 (Simulation time: 23 hr 17 min 40 sec) 
 Total Blocks : 262144 Invalid Blocks : 0
Heartbeat CPU 4 instructions: 170000003 cycles: 149959704 heartbeat IPC: 1.13682 cumulative IPC: 1.13364 (Simulation time: 23 hr 35 min 45 sec) 
 Total Blocks : 262144 Invalid Blocks : 0
Heartbeat CPU 1 instructions: 170000003 cycles: 149961252 heartbeat IPC: 1.13685 cumulative IPC: 1.13363 (Simulation time: 23 hr 35 min 45 sec) 
 Total Blocks : 262144 Invalid Blocks : 0
Heartbeat CPU 5 instructions: 170000003 cycles: 149961603 heartbeat IPC: 1.13683 cumulative IPC: 1.13362 (Simulation time: 23 hr 35 min 45 sec) 
 Total Blocks : 262144 Invalid Blocks : 0
Heartbeat CPU 0 instructions: 170000003 cycles: 149962200 heartbeat IPC: 1.13682 cumulative IPC: 1.13362 (Simulation time: 23 hr 35 min 46 sec) 
 Total Blocks : 262144 Invalid Blocks : 0
Heartbeat CPU 6 instructions: 170000003 cycles: 149962598 heartbeat IPC: 1.13683 cumulative IPC: 1.13362 (Simulation time: 23 hr 35 min 46 sec) 
 Total Blocks : 262144 Invalid Blocks : 0
Heartbeat CPU 2 instructions: 170000003 cycles: 149962909 heartbeat IPC: 1.13684 cumulative IPC: 1.13361 (Simulation time: 23 hr 35 min 46 sec) 
 Total Blocks : 262144 Invalid Blocks : 0
Heartbeat CPU 3 instructions: 170000003 cycles: 149963130 heartbeat IPC: 1.13683 cumulative IPC: 1.13361 (Simulation time: 23 hr 35 min 46 sec) 
 Total Blocks : 262144 Invalid Blocks : 0
Heartbeat CPU 7 instructions: 170000003 cycles: 149963636 heartbeat IPC: 1.13685 cumulative IPC: 1.13361 (Simulation time: 23 hr 35 min 46 sec) 
 Total Blocks : 262144 Invalid Blocks : 0
Heartbeat CPU 4 instructions: 180000000 cycles: 158753901 heartbeat IPC: 1.13711 cumulative IPC: 1.13383 (Simulation time: 23 hr 53 min 57 sec) 
 Total Blocks : 262144 Invalid Blocks : 0
Heartbeat CPU 1 instructions: 180000000 cycles: 158755545 heartbeat IPC: 1.1371 cumulative IPC: 1.13382 (Simulation time: 23 hr 53 min 58 sec) 
 Total Blocks : 262144 Invalid Blocks : 0
Heartbeat CPU 5 instructions: 180000000 cycles: 158755694 heartbeat IPC: 1.13713 cumulative IPC: 1.13382 (Simulation time: 23 hr 53 min 58 sec) 
 Total Blocks : 262144 Invalid Blocks : 0
Heartbeat CPU 0 instructions: 180000000 cycles: 158756625 heartbeat IPC: 1.13708 cumulative IPC: 1.13381 (Simulation time: 23 hr 53 min 58 sec) 
 Total Blocks : 262144 Invalid Blocks : 0
Heartbeat CPU 6 instructions: 180000000 cycles: 158756784 heartbeat IPC: 1.13711 cumulative IPC: 1.13381 (Simulation time: 23 hr 53 min 58 sec) 
 Total Blocks : 262144 Invalid Blocks : 0
Heartbeat CPU 2 instructions: 180000000 cycles: 158756948 heartbeat IPC: 1.13713 cumulative IPC: 1.13381 (Simulation time: 23 hr 53 min 58 sec) 
 Total Blocks : 262144 Invalid Blocks : 0
Heartbeat CPU 3 instructions: 180000000 cycles: 158757550 heartbeat IPC: 1.13708 cumulative IPC: 1.1338 (Simulation time: 23 hr 53 min 58 sec) 
 Total Blocks : 262144 Invalid Blocks : 0
Heartbeat CPU 7 instructions: 180000000 cycles: 158757653 heartbeat IPC: 1.13714 cumulative IPC: 1.1338 (Simulation time: 23 hr 53 min 58 sec) 
 Total Blocks : 262144 Invalid Blocks : 0
Heartbeat CPU 4 instructions: 190000002 cycles: 167576555 heartbeat IPC: 1.13345 cumulative IPC: 1.13381 (Simulation time: 24 hr 13 min 12 sec) 
 Total Blocks : 262144 Invalid Blocks : 0
Heartbeat CPU 1 instructions: 190000002 cycles: 167578300 heartbeat IPC: 1.13343 cumulative IPC: 1.1338 (Simulation time: 24 hr 13 min 12 sec) 
 Total Blocks : 262144 Invalid Blocks : 0
Heartbeat CPU 5 instructions: 190000002 cycles: 167578506 heartbeat IPC: 1.13343 cumulative IPC: 1.1338 (Simulation time: 24 hr 13 min 12 sec) 
 Total Blocks : 262144 Invalid Blocks : 0
Heartbeat CPU 0 instructions: 190000002 cycles: 167579251 heartbeat IPC: 1.13345 cumulative IPC: 1.13379 (Simulation time: 24 hr 13 min 12 sec) 
 Total Blocks : 262144 Invalid Blocks : 0
Heartbeat CPU 6 instructions: 190000002 cycles: 167579570 heartbeat IPC: 1.13343 cumulative IPC: 1.13379 (Simulation time: 24 hr 13 min 12 sec) 
 Total Blocks : 262144 Invalid Blocks : 0
Heartbeat CPU 2 instructions: 190000002 cycles: 167579627 heartbeat IPC: 1.13344 cumulative IPC: 1.13379 (Simulation time: 24 hr 13 min 12 sec) 
 Total Blocks : 262144 Invalid Blocks : 0
Heartbeat CPU 7 instructions: 190000002 cycles: 167580370 heartbeat IPC: 1.13344 cumulative IPC: 1.13378 (Simulation time: 24 hr 13 min 12 sec) 
 Total Blocks : 262144 Invalid Blocks : 0
Heartbeat CPU 3 instructions: 190000002 cycles: 167580619 heartbeat IPC: 1.13339 cumulative IPC: 1.13378 (Simulation time: 24 hr 13 min 12 sec) 
 Total Blocks : 262144 Invalid Blocks : 0
Heartbeat CPU 4 instructions: 200000000 cycles: 176369880 heartbeat IPC: 1.13723 cumulative IPC: 1.13398 (Simulation time: 24 hr 31 min 40 sec) 
 Total Blocks : 262144 Invalid Blocks : 0
Heartbeat CPU 1 instructions: 200000000 cycles: 176371669 heartbeat IPC: 1.13722 cumulative IPC: 1.13397 (Simulation time: 24 hr 31 min 40 sec) 
 Total Blocks : 262144 Invalid Blocks : 0
Heartbeat CPU 5 instructions: 200000000 cycles: 176371817 heartbeat IPC: 1.13723 cumulative IPC: 1.13397 (Simulation time: 24 hr 31 min 40 sec) 
 Total Blocks : 262144 Invalid Blocks : 0
Heartbeat CPU 0 instructions: 200000000 cycles: 176372503 heartbeat IPC: 1.13724 cumulative IPC: 1.13396 (Simulation time: 24 hr 31 min 40 sec) 
 Total Blocks : 262144 Invalid Blocks : 0
Heartbeat CPU 6 instructions: 200000000 cycles: 176373015 heartbeat IPC: 1.13721 cumulative IPC: 1.13396 (Simulation time: 24 hr 31 min 40 sec) 
 Total Blocks : 262144 Invalid Blocks : 0
Heartbeat CPU 2 instructions: 200000000 cycles: 176373282 heartbeat IPC: 1.13718 cumulative IPC: 1.13396 (Simulation time: 24 hr 31 min 40 sec) 
 Total Blocks : 262144 Invalid Blocks : 0
Heartbeat CPU 7 instructions: 200000000 cycles: 176373948 heartbeat IPC: 1.13719 cumulative IPC: 1.13395 (Simulation time: 24 hr 31 min 40 sec) 
 Total Blocks : 262144 Invalid Blocks : 0
Heartbeat CPU 3 instructions: 200000000 cycles: 176374197 heartbeat IPC: 1.13719 cumulative IPC: 1.13395 (Simulation time: 24 hr 31 min 40 sec) 
 Total Blocks : 262144 Invalid Blocks : 0

Warmup complete CPU 0 instructions: 200001971 cycles: 176374199 (Simulation time: 24 hr 31 min 40 sec) 
Warmup complete CPU 1 instructions: 200002846 cycles: 176374199 (Simulation time: 24 hr 31 min 40 sec) 
Warmup complete CPU 2 instructions: 200001240 cycles: 176374199 (Simulation time: 24 hr 31 min 40 sec) 
Warmup complete CPU 3 instructions: 200000001 cycles: 176374199 (Simulation time: 24 hr 31 min 40 sec) 
Warmup complete CPU 4 instructions: 200004825 cycles: 176374198 (Simulation time: 24 hr 31 min 40 sec) 
Warmup complete CPU 5 instructions: 200002643 cycles: 176374198 (Simulation time: 24 hr 31 min 40 sec) 
Warmup complete CPU 6 instructions: 200001522 cycles: 176374198 (Simulation time: 24 hr 31 min 40 sec) 
Warmup complete CPU 7 instructions: 200000305 cycles: 176374198 (Simulation time: 24 hr 31 min 40 sec) 

Heartbeat CPU 4 instructions: 210000003 cycles: 225878226 heartbeat IPC: 0.201986 cumulative IPC: 0.201906 (Simulation time: 25 hr 11 min 1 sec) 
 Total Blocks : 262144 Invalid Blocks : 0
Heartbeat CPU 5 instructions: 210000003 cycles: 226058312 heartbeat IPC: 0.201262 cumulative IPC: 0.201218 (Simulation time: 25 hr 11 min 11 sec) 
 Total Blocks : 262144 Invalid Blocks : 0
Heartbeat CPU 1 instructions: 210000003 cycles: 226219441 heartbeat IPC: 0.200611 cumulative IPC: 0.200564 (Simulation time: 25 hr 11 min 18 sec) 
 Total Blocks : 262144 Invalid Blocks : 0
Heartbeat CPU 7 instructions: 210000003 cycles: 226270448 heartbeat IPC: 0.200415 cumulative IPC: 0.20041 (Simulation time: 25 hr 11 min 20 sec) 
 Total Blocks : 262144 Invalid Blocks : 0
Heartbeat CPU 3 instructions: 210000003 cycles: 226373736 heartbeat IPC: 0.200002 cumulative IPC: 0.200002 (Simulation time: 25 hr 11 min 25 sec) 
 Total Blocks : 262144 Invalid Blocks : 0
Heartbeat CPU 2 instructions: 210000003 cycles: 226399648 heartbeat IPC: 0.199895 cumulative IPC: 0.199874 (Simulation time: 25 hr 11 min 26 sec) 
 Total Blocks : 262144 Invalid Blocks : 0
Heartbeat CPU 0 instructions: 210000003 cycles: 226411825 heartbeat IPC: 0.199843 cumulative IPC: 0.19981 (Simulation time: 25 hr 11 min 26 sec) 
 Total Blocks : 262144 Invalid Blocks : 0
Heartbeat CPU 6 instructions: 210000003 cycles: 226423917 heartbeat IPC: 0.199797 cumulative IPC: 0.199771 (Simulation time: 25 hr 11 min 27 sec) 
 Total Blocks : 262144 Invalid Blocks : 0
Heartbeat CPU 4 instructions: 220000000 cycles: 275369054 heartbeat IPC: 0.202058 cumulative IPC: 0.201982 (Simulation time: 25 hr 50 min 35 sec) 
 Total Blocks : 262144 Invalid Blocks : 0
Heartbeat CPU 5 instructions: 220000000 cycles: 275497418 heartbeat IPC: 0.202269 cumulative IPC: 0.201742 (Simulation time: 25 hr 50 min 42 sec) 
 Total Blocks : 262144 Invalid Blocks : 0
Heartbeat CPU 1 instructions: 220000000 cycles: 275768405 heartbeat IPC: 0.201821 cumulative IPC: 0.20119 (Simulation time: 25 hr 51 min 0 sec) 
 Total Blocks : 262144 Invalid Blocks : 0
Heartbeat CPU 7 instructions: 220000000 cycles: 275854098 heartbeat IPC: 0.201679 cumulative IPC: 0.201043 (Simulation time: 25 hr 51 min 4 sec) 
 Total Blocks : 262144 Invalid Blocks : 0
Heartbeat CPU 3 instructions: 220000000 cycles: 275984807 heartbeat IPC: 0.201568 cumulative IPC: 0.200782 (Simulation time: 25 hr 51 min 10 sec) 
 Total Blocks : 262144 Invalid Blocks : 0
Heartbeat CPU 2 instructions: 220000000 cycles: 276045006 heartbeat IPC: 0.201429 cumulative IPC: 0.200648 (Simulation time: 25 hr 51 min 12 sec) 
 Total Blocks : 262144 Invalid Blocks : 0
Heartbeat CPU 0 instructions: 220000000 cycles: 276126440 heartbeat IPC: 0.201148 cumulative IPC: 0.200477 (Simulation time: 25 hr 51 min 16 sec) 
 Total Blocks : 262144 Invalid Blocks : 0
Heartbeat CPU 6 instructions: 220000000 cycles: 276134495 heartbeat IPC: 0.201164 cumulative IPC: 0.200465 (Simulation time: 25 hr 51 min 16 sec) 
 Total Blocks : 262144 Invalid Blocks : 0
Heartbeat CPU 4 instructions: 230000001 cycles: 323596003 heartbeat IPC: 0.207353 cumulative IPC: 0.203741 (Simulation time: 26 hr 30 min 49 sec) 
 Total Blocks : 262144 Invalid Blocks : 0
Heartbeat CPU 5 instructions: 230000001 cycles: 323705560 heartbeat IPC: 0.207434 cumulative IPC: 0.203605 (Simulation time: 26 hr 30 min 55 sec) 
 Total Blocks : 262144 Invalid Blocks : 0
Heartbeat CPU 1 instructions: 230000001 cycles: 324006194 heartbeat IPC: 0.207306 cumulative IPC: 0.203189 (Simulation time: 26 hr 31 min 9 sec) 
 Total Blocks : 262144 Invalid Blocks : 0
Heartbeat CPU 7 instructions: 230000001 cycles: 324060383 heartbeat IPC: 0.207442 cumulative IPC: 0.203131 (Simulation time: 26 hr 31 min 12 sec) 
 Total Blocks : 262144 Invalid Blocks : 0
Heartbeat CPU 3 instructions: 230000001 cycles: 324291870 heartbeat IPC: 0.207009 cumulative IPC: 0.202816 (Simulation time: 26 hr 31 min 24 sec) 
 Total Blocks : 262144 Invalid Blocks : 0
Heartbeat CPU 2 instructions: 230000001 cycles: 324398011 heartbeat IPC: 0.206812 cumulative IPC: 0.202662 (Simulation time: 26 hr 31 min 30 sec) 
 Total Blocks : 262144 Invalid Blocks : 0
Heartbeat CPU 6 instructions: 230000001 cycles: 324490787 heartbeat IPC: 0.206798 cumulative IPC: 0.202533 (Simulation time: 26 hr 31 min 35 sec) 
 Total Blocks : 262144 Invalid Blocks : 0
Heartbeat CPU 0 instructions: 230000001 cycles: 324531654 heartbeat IPC: 0.206589 cumulative IPC: 0.202474 (Simulation time: 26 hr 31 min 37 sec) 
 Total Blocks : 262144 Invalid Blocks : 0
Heartbeat CPU 4 instructions: 240000000 cycles: 372704810 heartbeat IPC: 0.203629 cumulative IPC: 0.203713 (Simulation time: 27 hr 9 min 14 sec) 
 Total Blocks : 262144 Invalid Blocks : 0
Heartbeat CPU 5 instructions: 240000000 cycles: 372865664 heartbeat IPC: 0.203417 cumulative IPC: 0.203558 (Simulation time: 27 hr 9 min 23 sec) 
 Total Blocks : 262144 Invalid Blocks : 0
Heartbeat CPU 1 instructions: 240000000 cycles: 373163147 heartbeat IPC: 0.20343 cumulative IPC: 0.203249 (Simulation time: 27 hr 9 min 35 sec) 
 Total Blocks : 262144 Invalid Blocks : 0
Heartbeat CPU 7 instructions: 240000000 cycles: 373177945 heartbeat IPC: 0.203593 cumulative IPC: 0.203247 (Simulation time: 27 hr 9 min 36 sec) 
 Total Blocks : 262144 Invalid Blocks : 0
Heartbeat CPU 3 instructions: 240000000 cycles: 373318924 heartbeat IPC: 0.203969 cumulative IPC: 0.203103 (Simulation time: 27 hr 9 min 42 sec) 
 Total Blocks : 262144 Invalid Blocks : 0
Heartbeat CPU 2 instructions: 240000000 cycles: 373582135 heartbeat IPC: 0.203318 cumulative IPC: 0.202825 (Simulation time: 27 hr 9 min 54 sec) 
 Total Blocks : 262144 Invalid Blocks : 0
Heartbeat CPU 0 instructions: 240000000 cycles: 373769329 heartbeat IPC: 0.203096 cumulative IPC: 0.202629 (Simulation time: 27 hr 10 min 2 sec) 
 Total Blocks : 262144 Invalid Blocks : 0
Heartbeat CPU 6 instructions: 240000000 cycles: 373792264 heartbeat IPC: 0.202834 cumulative IPC: 0.202608 (Simulation time: 27 hr 10 min 4 sec) 
 Total Blocks : 262144 Invalid Blocks : 0
Heartbeat CPU 4 instructions: 250000003 cycles: 421697026 heartbeat IPC: 0.204114 cumulative IPC: 0.203793 (Simulation time: 27 hr 48 min 33 sec) 
 Total Blocks : 262144 Invalid Blocks : 0
Heartbeat CPU 5 instructions: 250000003 cycles: 421835940 heartbeat IPC: 0.204206 cumulative IPC: 0.203687 (Simulation time: 27 hr 48 min 39 sec) 
 Total Blocks : 262144 Invalid Blocks : 0
Heartbeat CPU 1 instructions: 250000003 cycles: 422229673 heartbeat IPC: 0.203805 cumulative IPC: 0.20336 (Simulation time: 27 hr 48 min 56 sec) 
 Total Blocks : 262144 Invalid Blocks : 0
Heartbeat CPU 7 instructions: 250000003 cycles: 422301151 heartbeat IPC: 0.20357 cumulative IPC: 0.203311 (Simulation time: 27 hr 48 min 59 sec) 
 Total Blocks : 262144 Invalid Blocks : 0
Heartbeat CPU 3 instructions: 250000003 cycles: 422356979 heartbeat IPC: 0.203923 cumulative IPC: 0.203266 (Simulation time: 27 hr 49 min 2 sec) 
 Total Blocks : 262144 Invalid Blocks : 0
Heartbeat CPU 2 instructions: 250000003 cycles: 422524727 heartbeat IPC: 0.204321 cumulative IPC: 0.203123 (Simulation time: 27 hr 49 min 9 sec) 
 Total Blocks : 262144 Invalid Blocks : 0
Heartbeat CPU 0 instructions: 250000003 cycles: 422748224 heartbeat IPC: 0.20417 cumulative IPC: 0.202935 (Simulation time: 27 hr 49 min 19 sec) 
 Total Blocks : 262144 Invalid Blocks : 0
Heartbeat CPU 6 instructions: 250000003 cycles: 422835000 heartbeat IPC: 0.203904 cumulative IPC: 0.202866 (Simulation time: 27 hr 49 min 23 sec) 
 Total Blocks : 262144 Invalid Blocks : 0
Heartbeat CPU 4 instructions: 260000003 cycles: 470868178 heartbeat IPC: 0.203371 cumulative IPC: 0.203723 (Simulation time: 28 hr 27 min 12 sec) 
 Total Blocks : 262144 Invalid Blocks : 0
Heartbeat CPU 5 instructions: 260000003 cycles: 470937767 heartbeat IPC: 0.203658 cumulative IPC: 0.203682 (Simulation time: 28 hr 27 min 15 sec) 
 Total Blocks : 262144 Invalid Blocks : 0
Heartbeat CPU 1 instructions: 260000003 cycles: 471392413 heartbeat IPC: 0.203406 cumulative IPC: 0.203368 (Simulation time: 28 hr 27 min 35 sec) 
 Total Blocks : 262144 Invalid Blocks : 0
Heartbeat CPU 7 instructions: 260000003 cycles: 471498721 heartbeat IPC: 0.203262 cumulative IPC: 0.203303 (Simulation time: 28 hr 27 min 39 sec) 
 Total Blocks : 262144 Invalid Blocks : 0
Heartbeat CPU 3 instructions: 260000003 cycles: 471532844 heartbeat IPC: 0.203352 cumulative IPC: 0.203281 (Simulation time: 28 hr 27 min 41 sec) 
 Total Blocks : 262144 Invalid Blocks : 0
Heartbeat CPU 2 instructions: 260000003 cycles: 471807025 heartbeat IPC: 0.202913 cumulative IPC: 0.203088 (Simulation time: 28 hr 27 min 53 sec) 
 Total Blocks : 262144 Invalid Blocks : 0
Heartbeat CPU 0 instructions: 260000003 cycles: 471915891 heartbeat IPC: 0.203386 cumulative IPC: 0.20301 (Simulation time: 28 hr 27 min 57 sec) 
 Total Blocks : 262144 Invalid Blocks : 0
Heartbeat CPU 6 instructions: 260000003 cycles: 471982452 heartbeat IPC: 0.203469 cumulative IPC: 0.202966 (Simulation time: 28 hr 28 min 0 sec) 
 Total Blocks : 262144 Invalid Blocks : 0
Heartbeat CPU 4 instructions: 270000000 cycles: 520617101 heartbeat IPC: 0.201009 cumulative IPC: 0.203331 (Simulation time: 29 hr 6 min 37 sec) 
 Total Blocks : 262144 Invalid Blocks : 0
Heartbeat CPU 5 instructions: 270000000 cycles: 520792968 heartbeat IPC: 0.200581 cumulative IPC: 0.203233 (Simulation time: 29 hr 6 min 44 sec) 
 Total Blocks : 262144 Invalid Blocks : 0
Heartbeat CPU 1 instructions: 270000000 cycles: 521224360 heartbeat IPC: 0.200674 cumulative IPC: 0.202978 (Simulation time: 29 hr 7 min 2 sec) 
 Total Blocks : 262144 Invalid Blocks : 0
Heartbeat CPU 7 instructions: 270000000 cycles: 521445514 heartbeat IPC: 0.200213 cumulative IPC: 0.202856 (Simulation time: 29 hr 7 min 12 sec) 
 Total Blocks : 262144 Invalid Blocks : 0
Heartbeat CPU 3 instructions: 270000000 cycles: 521489886 heartbeat IPC: 0.200172 cumulative IPC: 0.202831 (Simulation time: 29 hr 7 min 13 sec) 
 Total Blocks : 262144 Invalid Blocks : 0
Heartbeat CPU 2 instructions: 270000000 cycles: 521714923 heartbeat IPC: 0.200369 cumulative IPC: 0.202695 (Simulation time: 29 hr 7 min 23 sec) 
 Total Blocks : 262144 Invalid Blocks : 0
Heartbeat CPU 0 instructions: 270000000 cycles: 521767730 heartbeat IPC: 0.200594 cumulative IPC: 0.202662 (Simulation time: 29 hr 7 min 25 sec) 
 Total Blocks : 262144 Invalid Blocks : 0
Heartbeat CPU 6 instructions: 270000000 cycles: 521866149 heartbeat IPC: 0.200466 cumulative IPC: 0.202605 (Simulation time: 29 hr 7 min 30 sec) 
 Total Blocks : 262144 Invalid Blocks : 0
Heartbeat CPU 4 instructions: 280000000 cycles: 570537386 heartbeat IPC: 0.200319 cumulative IPC: 0.202949 (Simulation time: 29 hr 45 min 20 sec) 
 Total Blocks : 262144 Invalid Blocks : 0
Heartbeat CPU 5 instructions: 280000000 cycles: 570643291 heartbeat IPC: 0.200601 cumulative IPC: 0.2029 (Simulation time: 29 hr 45 min 25 sec) 
 Total Blocks : 262144 Invalid Blocks : 0
Heartbeat CPU 1 instructions: 280000000 cycles: 571074378 heartbeat IPC: 0.200602 cumulative IPC: 0.202678 (Simulation time: 29 hr 45 min 46 sec) 
 Total Blocks : 262144 Invalid Blocks : 0
Heartbeat CPU 7 instructions: 280000000 cycles: 571384480 heartbeat IPC: 0.200244 cumulative IPC: 0.202526 (Simulation time: 29 hr 46 min 1 sec) 
 Total Blocks : 262144 Invalid Blocks : 0
Heartbeat CPU 3 instructions: 280000000 cycles: 571412786 heartbeat IPC: 0.200309 cumulative IPC: 0.202512 (Simulation time: 29 hr 46 min 2 sec) 
 Total Blocks : 262144 Invalid Blocks : 0
Heartbeat CPU 2 instructions: 280000000 cycles: 571620684 heartbeat IPC: 0.200378 cumulative IPC: 0.202402 (Simulation time: 29 hr 46 min 12 sec) 
 Total Blocks : 262144 Invalid Blocks : 0
Heartbeat CPU 6 instructions: 280000000 cycles: 571731205 heartbeat IPC: 0.200541 cumulative IPC: 0.202345 (Simulation time: 29 hr 46 min 18 sec) 
 Total Blocks : 262144 Invalid Blocks : 0
Heartbeat CPU 0 instructions: 280000000 cycles: 571746021 heartbeat IPC: 0.200087 cumulative IPC: 0.202336 (Simulation time: 29 hr 46 min 18 sec) 
 Total Blocks : 262144 Invalid Blocks : 0
Heartbeat CPU 4 instructions: 290000000 cycles: 620215115 heartbeat IPC: 0.201297 cumulative IPC: 0.202764 (Simulation time: 30 hr 23 min 54 sec) 
 Total Blocks : 262144 Invalid Blocks : 0
Heartbeat CPU 5 instructions: 290000000 cycles: 620320822 heartbeat IPC: 0.201298 cumulative IPC: 0.202721 (Simulation time: 30 hr 23 min 59 sec) 
 Total Blocks : 262144 Invalid Blocks : 0
Heartbeat CPU 1 instructions: 290000000 cycles: 620678226 heartbeat IPC: 0.201597 cumulative IPC: 0.202558 (Simulation time: 30 hr 24 min 15 sec) 
 Total Blocks : 262144 Invalid Blocks : 0
Heartbeat CPU 7 instructions: 290000000 cycles: 620981369 heartbeat IPC: 0.201626 cumulative IPC: 0.202425 (Simulation time: 30 hr 24 min 28 sec) 
 Total Blocks : 262144 Invalid Blocks : 0
Heartbeat CPU 3 instructions: 290000000 cycles: 621121267 heartbeat IPC: 0.201173 cumulative IPC: 0.202362 (Simulation time: 30 hr 24 min 34 sec) 
 Total Blocks : 262144 Invalid Blocks : 0
Heartbeat CPU 2 instructions: 290000000 cycles: 621373600 heartbeat IPC: 0.200993 cumulative IPC: 0.202245 (Simulation time: 30 hr 24 min 45 sec) 
 Total Blocks : 262144 Invalid Blocks : 0
Heartbeat CPU 6 instructions: 290000000 cycles: 621408016 heartbeat IPC: 0.201301 cumulative IPC: 0.202228 (Simulation time: 30 hr 24 min 46 sec) 
 Total Blocks : 262144 Invalid Blocks : 0
Heartbeat CPU 0 instructions: 290000000 cycles: 621505595 heartbeat IPC: 0.200966 cumulative IPC: 0.202183 (Simulation time: 30 hr 24 min 51 sec) 
 Total Blocks : 262144 Invalid Blocks : 0
Heartbeat CPU 4 instructions: 300000001 cycles: 669379288 heartbeat IPC: 0.2034 cumulative IPC: 0.202828 (Simulation time: 31 hr 2 min 30 sec) 
 Total Blocks : 262144 Invalid Blocks : 0
Heartbeat CPU 5 instructions: 300000001 cycles: 669479678 heartbeat IPC: 0.203422 cumulative IPC: 0.202791 (Simulation time: 31 hr 2 min 36 sec) 
 Total Blocks : 262144 Invalid Blocks : 0
Heartbeat CPU 1 instructions: 300000001 cycles: 669770738 heartbeat IPC: 0.203697 cumulative IPC: 0.202671 (Simulation time: 31 hr 2 min 50 sec) 
 Total Blocks : 262144 Invalid Blocks : 0
Heartbeat CPU 7 instructions: 300000001 cycles: 669995688 heartbeat IPC: 0.204022 cumulative IPC: 0.202584 (Simulation time: 31 hr 3 min 1 sec) 
 Total Blocks : 262144 Invalid Blocks : 0
Heartbeat CPU 3 instructions: 300000001 cycles: 670183545 heartbeat IPC: 0.203823 cumulative IPC: 0.202507 (Simulation time: 31 hr 3 min 11 sec) 
 Total Blocks : 262144 Invalid Blocks : 0
Heartbeat CPU 2 instructions: 300000001 cycles: 670549417 heartbeat IPC: 0.203352 cumulative IPC: 0.202355 (Simulation time: 31 hr 3 min 28 sec) 
 Total Blocks : 262144 Invalid Blocks : 0
Heartbeat CPU 6 instructions: 300000001 cycles: 670636580 heartbeat IPC: 0.203134 cumulative IPC: 0.202319 (Simulation time: 31 hr 3 min 32 sec) 
 Total Blocks : 262144 Invalid Blocks : 0
Heartbeat CPU 0 instructions: 300000001 cycles: 670687322 heartbeat IPC: 0.203328 cumulative IPC: 0.202297 (Simulation time: 31 hr 3 min 34 sec) 
 Total Blocks : 262144 Invalid Blocks : 0
Heartbeat CPU 4 instructions: 310000000 cycles: 717732576 heartbeat IPC: 0.206811 cumulative IPC: 0.203184 (Simulation time: 31 hr 41 min 37 sec) 
 Total Blocks : 262144 Invalid Blocks : 0
Heartbeat CPU 5 instructions: 310000000 cycles: 717906750 heartbeat IPC: 0.206496 cumulative IPC: 0.203122 (Simulation time: 31 hr 41 min 48 sec) 
 Total Blocks : 262144 Invalid Blocks : 0
Heartbeat CPU 1 instructions: 310000003 cycles: 718176551 heartbeat IPC: 0.206587 cumulative IPC: 0.203021 (Simulation time: 31 hr 42 min 4 sec) 
 Total Blocks : 262144 Invalid Blocks : 0
Heartbeat CPU 7 instructions: 310000003 cycles: 718352758 heartbeat IPC: 0.206795 cumulative IPC: 0.20296 (Simulation time: 31 hr 42 min 15 sec) 
 Total Blocks : 262144 Invalid Blocks : 0
Heartbeat CPU 3 instructions: 310000000 cycles: 718664181 heartbeat IPC: 0.206268 cumulative IPC: 0.202844 (Simulation time: 31 hr 42 min 34 sec) 
 Total Blocks : 262144 Invalid Blocks : 0
Heartbeat CPU 2 instructions: 310000003 cycles: 719111459 heartbeat IPC: 0.205922 cumulative IPC: 0.202674 (Simulation time: 31 hr 43 min 16 sec) 
 Total Blocks : 262144 Invalid Blocks : 0
Heartbeat CPU 6 instructions: 310000000 cycles: 719205060 heartbeat IPC: 0.205895 cumulative IPC: 0.202639 (Simulation time: 31 hr 43 min 28 sec) 
 Total Blocks : 262144 Invalid Blocks : 0
Heartbeat CPU 0 instructions: 310000003 cycles: 719205416 heartbeat IPC: 0.206109 cumulative IPC: 0.202638 (Simulation time: 31 hr 43 min 28 sec) 
 Total Blocks : 262144 Invalid Blocks : 0
Heartbeat CPU 4 instructions: 320000001 cycles: 766842492 heartbeat IPC: 0.203625 cumulative IPC: 0.20322 (Simulation time: 32 hr 23 min 10 sec) 
 Total Blocks : 262144 Invalid Blocks : 0
Heartbeat CPU 5 instructions: 320000001 cycles: 767041104 heartbeat IPC: 0.203524 cumulative IPC: 0.203156 (Simulation time: 32 hr 23 min 19 sec) 
 Total Blocks : 262144 Invalid Blocks : 0
Heartbeat CPU 1 instructions: 320000001 cycles: 767269437 heartbeat IPC: 0.203695 cumulative IPC: 0.203077 (Simulation time: 32 hr 23 min 35 sec) 
 Total Blocks : 262144 Invalid Blocks : 0
Heartbeat CPU 7 instructions: 320000001 cycles: 767408016 heartbeat IPC: 0.203852 cumulative IPC: 0.203034 (Simulation time: 32 hr 23 min 41 sec) 
 Total Blocks : 262144 Invalid Blocks : 0
Heartbeat CPU 3 instructions: 320000001 cycles: 767783929 heartbeat IPC: 0.203584 cumulative IPC: 0.202905 (Simulation time: 32 hr 23 min 58 sec) 
 Total Blocks : 262144 Invalid Blocks : 0
Heartbeat CPU 6 instructions: 320000001 cycles: 768382964 heartbeat IPC: 0.203343 cumulative IPC: 0.202697 (Simulation time: 32 hr 24 min 29 sec) 
 Total Blocks : 262144 Invalid Blocks : 0
Heartbeat CPU 2 instructions: 320000001 cycles: 768392988 heartbeat IPC: 0.202916 cumulative IPC: 0.202694 (Simulation time: 32 hr 24 min 29 sec) 
 Total Blocks : 262144 Invalid Blocks : 0
Heartbeat CPU 0 instructions: 320000001 cycles: 768415568 heartbeat IPC: 0.20321 cumulative IPC: 0.202685 (Simulation time: 32 hr 24 min 30 sec) 
 Total Blocks : 262144 Invalid Blocks : 0
Heartbeat CPU 4 instructions: 330000000 cycles: 816333961 heartbeat IPC: 0.202055 cumulative IPC: 0.20313 (Simulation time: 33 hr 2 min 46 sec) 
 Total Blocks : 262144 Invalid Blocks : 0
Heartbeat CPU 5 instructions: 330000000 cycles: 816614613 heartbeat IPC: 0.201721 cumulative IPC: 0.203045 (Simulation time: 33 hr 2 min 58 sec) 
 Total Blocks : 262144 Invalid Blocks : 0
Heartbeat CPU 1 instructions: 330000000 cycles: 816863639 heartbeat IPC: 0.201636 cumulative IPC: 0.202965 (Simulation time: 33 hr 3 min 9 sec) 
 Total Blocks : 262144 Invalid Blocks : 0
Heartbeat CPU 7 instructions: 330000000 cycles: 816932735 heartbeat IPC: 0.201919 cumulative IPC: 0.202947 (Simulation time: 33 hr 3 min 12 sec) 
 Total Blocks : 262144 Invalid Blocks : 0
Heartbeat CPU 3 instructions: 330000000 cycles: 817334847 heartbeat IPC: 0.201813 cumulative IPC: 0.202821 (Simulation time: 33 hr 3 min 30 sec) 
 Total Blocks : 262144 Invalid Blocks : 0
Heartbeat CPU 2 instructions: 330000000 cycles: 818215408 heartbeat IPC: 0.200713 cumulative IPC: 0.20254 (Simulation time: 33 hr 4 min 9 sec) 
 Total Blocks : 262144 Invalid Blocks : 0
Heartbeat CPU 6 instructions: 330000000 cycles: 818216625 heartbeat IPC: 0.200668 cumulative IPC: 0.20254 (Simulation time: 33 hr 4 min 9 sec) 
 Total Blocks : 262144 Invalid Blocks : 0
Heartbeat CPU 0 instructions: 330000000 cycles: 818221615 heartbeat IPC: 0.200779 cumulative IPC: 0.202537 (Simulation time: 33 hr 4 min 10 sec) 
 Total Blocks : 262144 Invalid Blocks : 0
Heartbeat CPU 4 instructions: 340000000 cycles: 866062143 heartbeat IPC: 0.201093 cumulative IPC: 0.202983 (Simulation time: 33 hr 40 min 40 sec) 
 Total Blocks : 262144 Invalid Blocks : 0
Heartbeat CPU 5 instructions: 340000000 cycles: 866276958 heartbeat IPC: 0.20136 cumulative IPC: 0.202923 (Simulation time: 33 hr 40 min 50 sec) 
 Total Blocks : 262144 Invalid Blocks : 0
Heartbeat CPU 1 instructions: 340000000 cycles: 866717988 heartbeat IPC: 0.200584 cumulative IPC: 0.202793 (Simulation time: 33 hr 41 min 12 sec) 
 Total Blocks : 262144 Invalid Blocks : 0
Heartbeat CPU 7 instructions: 340000000 cycles: 866744809 heartbeat IPC: 0.200755 cumulative IPC: 0.202789 (Simulation time: 33 hr 41 min 13 sec) 
 Total Blocks : 262144 Invalid Blocks : 0
Heartbeat CPU 3 instructions: 340000000 cycles: 866946974 heartbeat IPC: 0.201564 cumulative IPC: 0.20273 (Simulation time: 33 hr 41 min 24 sec) 
 Total Blocks : 262144 Invalid Blocks : 0
Heartbeat CPU 6 instructions: 340000000 cycles: 868111831 heartbeat IPC: 0.20042 cumulative IPC: 0.202387 (Simulation time: 33 hr 42 min 26 sec) 
 Total Blocks : 262144 Invalid Blocks : 0
Heartbeat CPU 2 instructions: 340000000 cycles: 868155649 heartbeat IPC: 0.200239 cumulative IPC: 0.202374 (Simulation time: 33 hr 42 min 28 sec) 
 Total Blocks : 262144 Invalid Blocks : 0
Heartbeat CPU 0 instructions: 340000000 cycles: 868194868 heartbeat IPC: 0.200107 cumulative IPC: 0.202362 (Simulation time: 33 hr 42 min 30 sec) 
 Total Blocks : 262144 Invalid Blocks : 0
Heartbeat CPU 4 instructions: 350000001 cycles: 916345536 heartbeat IPC: 0.198873 cumulative IPC: 0.202704 (Simulation time: 34 hr 20 min 37 sec) 
 Total Blocks : 262144 Invalid Blocks : 0
Heartbeat CPU 5 instructions: 350000001 cycles: 916466534 heartbeat IPC: 0.199245 cumulative IPC: 0.202674 (Simulation time: 34 hr 20 min 42 sec) 
 Total Blocks : 262144 Invalid Blocks : 0
Heartbeat CPU 1 instructions: 350000001 cycles: 917149230 heartbeat IPC: 0.19829 cumulative IPC: 0.202487 (Simulation time: 34 hr 21 min 12 sec) 
 Total Blocks : 262144 Invalid Blocks : 0
Heartbeat CPU 7 instructions: 350000001 cycles: 917160464 heartbeat IPC: 0.198351 cumulative IPC: 0.202487 (Simulation time: 34 hr 21 min 13 sec) 
 Total Blocks : 262144 Invalid Blocks : 0
Heartbeat CPU 3 instructions: 350000001 cycles: 917290303 heartbeat IPC: 0.198636 cumulative IPC: 0.202452 (Simulation time: 34 hr 21 min 18 sec) 
 Total Blocks : 262144 Invalid Blocks : 0
Heartbeat CPU 6 instructions: 350000001 cycles: 918548647 heartbeat IPC: 0.198268 cumulative IPC: 0.202107 (Simulation time: 34 hr 22 min 16 sec) 
 Total Blocks : 262144 Invalid Blocks : 0
Heartbeat CPU 0 instructions: 350000001 cycles: 918653310 heartbeat IPC: 0.198183 cumulative IPC: 0.202078 (Simulation time: 34 hr 22 min 21 sec) 
 Total Blocks : 262144 Invalid Blocks : 0
Heartbeat CPU 2 instructions: 350000001 cycles: 918667204 heartbeat IPC: 0.197975 cumulative IPC: 0.202075 (Simulation time: 34 hr 22 min 22 sec) 
 Total Blocks : 262144 Invalid Blocks : 0
Heartbeat CPU 4 instructions: 360000002 cycles: 966007143 heartbeat IPC: 0.201363 cumulative IPC: 0.20262 (Simulation time: 35 hr 3 min 40 sec) 
 Total Blocks : 262144 Invalid Blocks : 0
Heartbeat CPU 5 instructions: 360000002 cycles: 966088963 heartbeat IPC: 0.201522 cumulative IPC: 0.202601 (Simulation time: 35 hr 3 min 45 sec) 
 Total Blocks : 262144 Invalid Blocks : 0
Heartbeat CPU 7 instructions: 360000002 cycles: 966830722 heartbeat IPC: 0.201328 cumulative IPC: 0.202414 (Simulation time: 35 hr 4 min 28 sec) 
 Total Blocks : 262144 Invalid Blocks : 0
Heartbeat CPU 1 instructions: 360000002 cycles: 966940392 heartbeat IPC: 0.200839 cumulative IPC: 0.202383 (Simulation time: 35 hr 4 min 33 sec) 
 Total Blocks : 262144 Invalid Blocks : 0
Heartbeat CPU 3 instructions: 360000002 cycles: 966987084 heartbeat IPC: 0.20122 cumulative IPC: 0.202375 (Simulation time: 35 hr 4 min 36 sec) 
 Total Blocks : 262144 Invalid Blocks : 0
Heartbeat CPU 6 instructions: 360000002 cycles: 968094737 heartbeat IPC: 0.201832 cumulative IPC: 0.20209 (Simulation time: 35 hr 5 min 34 sec) 
 Total Blocks : 262144 Invalid Blocks : 0
Heartbeat CPU 2 instructions: 360000002 cycles: 968343875 heartbeat IPC: 0.201302 cumulative IPC: 0.202026 (Simulation time: 35 hr 5 min 50 sec) 
 Total Blocks : 262144 Invalid Blocks : 0
Heartbeat CPU 0 instructions: 360000002 cycles: 968357121 heartbeat IPC: 0.201192 cumulative IPC: 0.202022 (Simulation time: 35 hr 5 min 51 sec) 
 Total Blocks : 262144 Invalid Blocks : 0
Heartbeat CPU 4 instructions: 370000001 cycles: 1015149933 heartbeat IPC: 0.203489 cumulative IPC: 0.202671 (Simulation time: 35 hr 48 min 59 sec) 
 Total Blocks : 262144 Invalid Blocks : 0
Heartbeat CPU 5 instructions: 370000001 cycles: 1015215718 heartbeat IPC: 0.203555 cumulative IPC: 0.202657 (Simulation time: 35 hr 49 min 3 sec) 
 Total Blocks : 262144 Invalid Blocks : 0
Heartbeat CPU 7 instructions: 370000001 cycles: 1016024295 heartbeat IPC: 0.203279 cumulative IPC: 0.202465 (Simulation time: 35 hr 49 min 46 sec) 
 Total Blocks : 262144 Invalid Blocks : 0
Heartbeat CPU 1 instructions: 370000001 cycles: 1016209677 heartbeat IPC: 0.202966 cumulative IPC: 0.202417 (Simulation time: 35 hr 49 min 56 sec) 
 Total Blocks : 262144 Invalid Blocks : 0
Heartbeat CPU 3 instructions: 370000001 cycles: 1016224661 heartbeat IPC: 0.203097 cumulative IPC: 0.202417 (Simulation time: 35 hr 49 min 58 sec) 
 Total Blocks : 262144 Invalid Blocks : 0
Heartbeat CPU 6 instructions: 370000001 cycles: 1017198311 heartbeat IPC: 0.203651 cumulative IPC: 0.202181 (Simulation time: 35 hr 50 min 49 sec) 
 Total Blocks : 262144 Invalid Blocks : 0
Heartbeat CPU 0 instructions: 370000001 cycles: 1017355440 heartbeat IPC: 0.204089 cumulative IPC: 0.202142 (Simulation time: 35 hr 50 min 59 sec) 
 Total Blocks : 262144 Invalid Blocks : 0
Heartbeat CPU 2 instructions: 370000001 cycles: 1017421270 heartbeat IPC: 0.20376 cumulative IPC: 0.202128 (Simulation time: 35 hr 51 min 3 sec) 
 Total Blocks : 262144 Invalid Blocks : 0
Heartbeat CPU 5 instructions: 380000001 cycles: 1064383227 heartbeat IPC: 0.203386 cumulative IPC: 0.202698 (Simulation time: 36 hr 34 min 31 sec) 
 Total Blocks : 262144 Invalid Blocks : 0
Heartbeat CPU 4 instructions: 380000001 cycles: 1064383817 heartbeat IPC: 0.203112 cumulative IPC: 0.202695 (Simulation time: 36 hr 34 min 31 sec) 
 Total Blocks : 262144 Invalid Blocks : 0
Heartbeat CPU 7 instructions: 380000001 cycles: 1065084751 heartbeat IPC: 0.20383 cumulative IPC: 0.20254 (Simulation time: 36 hr 35 min 13 sec) 
 Total Blocks : 262144 Invalid Blocks : 0
Heartbeat CPU 1 instructions: 380000001 cycles: 1065392089 heartbeat IPC: 0.203325 cumulative IPC: 0.202467 (Simulation time: 36 hr 35 min 32 sec) 
 Total Blocks : 262144 Invalid Blocks : 0
Heartbeat CPU 3 instructions: 380000001 cycles: 1065437673 heartbeat IPC: 0.203198 cumulative IPC: 0.20246 (Simulation time: 36 hr 35 min 34 sec) 
 Total Blocks : 262144 Invalid Blocks : 0
Heartbeat CPU 6 instructions: 380000001 cycles: 1066319110 heartbeat IPC: 0.20358 cumulative IPC: 0.202258 (Simulation time: 36 hr 36 min 29 sec) 
 Total Blocks : 262144 Invalid Blocks : 0
Heartbeat CPU 2 instructions: 380000001 cycles: 1066549276 heartbeat IPC: 0.20355 cumulative IPC: 0.202206 (Simulation time: 36 hr 36 min 45 sec) 
 Total Blocks : 262144 Invalid Blocks : 0
Heartbeat CPU 0 instructions: 380000001 cycles: 1066552245 heartbeat IPC: 0.203265 cumulative IPC: 0.202205 (Simulation time: 36 hr 36 min 45 sec) 
 Total Blocks : 262144 Invalid Blocks : 0
Heartbeat CPU 5 instructions: 390000002 cycles: 1112914443 heartbeat IPC: 0.206053 cumulative IPC: 0.202872 (Simulation time: 37 hr 18 min 19 sec) 
 Total Blocks : 262144 Invalid Blocks : 0
Heartbeat CPU 4 instructions: 390000002 cycles: 1112975954 heartbeat IPC: 0.205795 cumulative IPC: 0.202856 (Simulation time: 37 hr 18 min 23 sec) 
 Total Blocks : 262144 Invalid Blocks : 0
Heartbeat CPU 7 instructions: 390000002 cycles: 1113571768 heartbeat IPC: 0.206241 cumulative IPC: 0.202732 (Simulation time: 37 hr 18 min 52 sec) 
 Total Blocks : 262144 Invalid Blocks : 0
Heartbeat CPU 1 instructions: 390000002 cycles: 1113969561 heartbeat IPC: 0.205857 cumulative IPC: 0.202643 (Simulation time: 37 hr 19 min 11 sec) 
 Total Blocks : 262144 Invalid Blocks : 0
Heartbeat CPU 3 instructions: 390000002 cycles: 1113997101 heartbeat IPC: 0.205933 cumulative IPC: 0.20264 (Simulation time: 37 hr 19 min 12 sec) 
 Total Blocks : 262144 Invalid Blocks : 0
Heartbeat CPU 6 instructions: 390000002 cycles: 1114862998 heartbeat IPC: 0.205999 cumulative IPC: 0.202452 (Simulation time: 37 hr 19 min 54 sec) 
 Total Blocks : 262144 Invalid Blocks : 0
Heartbeat CPU 0 instructions: 390000002 cycles: 1115215502 heartbeat IPC: 0.205494 cumulative IPC: 0.202375 (Simulation time: 37 hr 20 min 10 sec) 
 Total Blocks : 262144 Invalid Blocks : 0
Heartbeat CPU 2 instructions: 390000002 cycles: 1115237268 heartbeat IPC: 0.205389 cumulative IPC: 0.202371 (Simulation time: 37 hr 20 min 11 sec) 
 Total Blocks : 262144 Invalid Blocks : 0
Heartbeat CPU 5 instructions: 400000001 cycles: 1163001182 heartbeat IPC: 0.199654 cumulative IPC: 0.202708 (Simulation time: 38 hr 2 min 34 sec) 
 Total Blocks : 262144 Invalid Blocks : 0
Finished CPU 5 instructions: 200000003 cycles: 986647798 cumulative IPC: 0.202707 (Simulation time: 38 hr 2 min 35 sec) 
Heartbeat CPU 4 instructions: 400000001 cycles: 1163028145 heartbeat IPC: 0.199791 cumulative IPC: 0.2027 (Simulation time: 38 hr 2 min 36 sec) 
 Total Blocks : 262144 Invalid Blocks : 0
Finished CPU 4 instructions: 200000003 cycles: 986687999 cumulative IPC: 0.202698 (Simulation time: 38 hr 2 min 38 sec) 
Heartbeat CPU 7 instructions: 400000001 cycles: 1163504919 heartbeat IPC: 0.200268 cumulative IPC: 0.202607 (Simulation time: 38 hr 3 min 7 sec) 
 Total Blocks : 262144 Invalid Blocks : 0
Finished CPU 7 instructions: 200000000 cycles: 987135490 cumulative IPC: 0.202606 (Simulation time: 38 hr 3 min 7 sec) 
Heartbeat CPU 1 instructions: 400000001 cycles: 1163950814 heartbeat IPC: 0.200075 cumulative IPC: 0.202513 (Simulation time: 38 hr 3 min 34 sec) 
 Total Blocks : 262144 Invalid Blocks : 0
Finished CPU 1 instructions: 200000000 cycles: 987597311 cumulative IPC: 0.202512 (Simulation time: 38 hr 3 min 35 sec) 
Heartbeat CPU 3 instructions: 400000001 cycles: 1164002099 heartbeat IPC: 0.19998 cumulative IPC: 0.202505 (Simulation time: 38 hr 3 min 36 sec) 
 Total Blocks : 262144 Invalid Blocks : 0
Finished CPU 3 instructions: 200000000 cycles: 987627900 cumulative IPC: 0.202505 (Simulation time: 38 hr 3 min 36 sec) 
Heartbeat CPU 6 instructions: 400000001 cycles: 1164862243 heartbeat IPC: 0.200003 cumulative IPC: 0.202328 (Simulation time: 38 hr 4 min 25 sec) 
 Total Blocks : 262144 Invalid Blocks : 0
Finished CPU 6 instructions: 200000001 cycles: 988499038 cumulative IPC: 0.202327 (Simulation time: 38 hr 4 min 25 sec) 
Heartbeat CPU 0 instructions: 400000001 cycles: 1165224033 heartbeat IPC: 0.199966 cumulative IPC: 0.202253 (Simulation time: 38 hr 4 min 46 sec) 
 Total Blocks : 262144 Invalid Blocks : 0
Finished CPU 0 instructions: 200000000 cycles: 988868139 cumulative IPC: 0.202251 (Simulation time: 38 hr 4 min 47 sec) 
Heartbeat CPU 2 instructions: 400000001 cycles: 1165267877 heartbeat IPC: 0.199878 cumulative IPC: 0.202245 (Simulation time: 38 hr 4 min 48 sec) 
 Total Blocks : 262144 Invalid Blocks : 0
Finished CPU 2 instructions: 200000001 cycles: 988903887 cumulative IPC: 0.202244 (Simulation time: 38 hr 4 min 48 sec) 

CPU 0 Branch Prediction Accuracy: 94.2237% MPKI: 8.58568 Average ROB Occupancy at Mispredict: 102.373

CPU 1 Branch Prediction Accuracy: 94.2234% MPKI: 8.58591 Average ROB Occupancy at Mispredict: 102.364

CPU 2 Branch Prediction Accuracy: 94.2237% MPKI: 8.58573 Average ROB Occupancy at Mispredict: 102.363

CPU 3 Branch Prediction Accuracy: 94.2234% MPKI: 8.58613 Average ROB Occupancy at Mispredict: 102.37

CPU 4 Branch Prediction Accuracy: 94.2235% MPKI: 8.5856 Average ROB Occupancy at Mispredict: 102.365

CPU 5 Branch Prediction Accuracy: 94.2235% MPKI: 8.58572 Average ROB Occupancy at Mispredict: 102.372

CPU 6 Branch Prediction Accuracy: 94.2236% MPKI: 8.58594 Average ROB Occupancy at Mispredict: 102.37

CPU 7 Branch Prediction Accuracy: 94.2233% MPKI: 8.58603 Average ROB Occupancy at Mispredict: 102.359

ChampSim completed all CPUs

Total Simulation Statistics (not including warmup)

CPU 0 cumulative IPC: 0.20225 instructions: 200005370 cycles: 988903887
ITLB TOTAL     ACCESS: 32975459  HIT: 32656400  MISS: 319059  HIT %: 99.0324  MISS %: 0.967565  AVERAGE MISS PENALTY: 10.9308
ITLB LOAD      ACCESS: 32975459  HIT: 32656400  MISS: 319059  HIT %: 99.0324  MISS %: 0.967565  AVERAGE MISS PENALTY: 10.9308
ITLB RFO       ACCESS:     0  HIT:     0  MISS:     0  HIT %:     0  MISS %:     0  AVERAGE MISS PENALTY: 0
ITLB PREFETCH  ACCESS:     0  HIT:     0  MISS:     0  HIT %:     0  MISS %:     0  AVERAGE MISS PENALTY: 0
ITLB WRITEBACK ACCESS:     0  HIT:     0  MISS:     0  HIT %:     0  MISS %:     0  AVERAGE MISS PENALTY: 0

DTLB TOTAL     ACCESS: 80591753  HIT: 76767094  MISS: 3824659  HIT %: 95.2543  MISS %: 4.74572  AVERAGE MISS PENALTY: 35.4474
DTLB LOAD      ACCESS: 49527584  HIT: 46129864  MISS: 3397720  HIT %: 93.1397  MISS %: 6.86026  AVERAGE MISS PENALTY: 32.9696
DTLB RFO       ACCESS: 31064169  HIT: 30637230  MISS: 426939  HIT %: 98.6256  MISS %: 1.37438  AVERAGE MISS PENALTY: 55.1664
DTLB PREFETCH  ACCESS:     0  HIT:     0  MISS:     0  HIT %:     0  MISS %:     0  AVERAGE MISS PENALTY: 0
DTLB WRITEBACK ACCESS:     0  HIT:     0  MISS:     0  HIT %:     0  MISS %:     0  AVERAGE MISS PENALTY: 0

STLB TOTAL     ACCESS: 4143718  HIT: 3285776  MISS: 857942  HIT %: 79.2954  MISS %: 20.7046  AVERAGE MISS PENALTY: 100
STLB LOAD      ACCESS: 3716779  HIT: 3012178  MISS: 704601  HIT %: 81.0427  MISS %: 18.9573  AVERAGE MISS PENALTY: 100
STLB RFO       ACCESS: 426939  HIT: 273598  MISS: 153341  HIT %: 64.0836  MISS %: 35.9164  AVERAGE MISS PENALTY: 100
STLB PREFETCH  ACCESS:     0  HIT:     0  MISS:     0  HIT %:     0  MISS %:     0  AVERAGE MISS PENALTY: 0
STLB WRITEBACK ACCESS:     0  HIT:     0  MISS:     0  HIT %:     0  MISS %:     0  AVERAGE MISS PENALTY: 0

L1D TOTAL     ACCESS: 115440559  HIT: 108363713  MISS: 7076846  HIT %: 93.8697  MISS %: 6.13029  AVERAGE MISS PENALTY: 8.15462e+06
L1D LOAD      ACCESS: 51731862  HIT: 48772733  MISS: 2959129  HIT %: 94.2799  MISS %: 5.72013  AVERAGE MISS PENALTY: 1.51319e+07
L1D RFO       ACCESS: 36694204  HIT: 36380450  MISS: 313754  HIT %: 99.1449  MISS %: 0.855051  AVERAGE MISS PENALTY: 4.12136e+07
L1D PREFETCH  ACCESS: 27014493  HIT: 23210530  MISS: 3803963  HIT %: 85.9188  MISS %: 14.0812  AVERAGE MISS PENALTY: 235.086
L1D WRITEBACK ACCESS:     0  HIT:     0  MISS:     0  HIT %:     0  MISS %:     0  AVERAGE MISS PENALTY: 0

L1I TOTAL     ACCESS: 43283273  HIT: 43206622  MISS: 76651  HIT %: 99.8229  MISS %: 0.177092  AVERAGE MISS PENALTY: 68.0924
L1I LOAD      ACCESS: 43283273  HIT: 43206622  MISS: 76651  HIT %: 99.8229  MISS %: 0.177092  AVERAGE MISS PENALTY: 68.0924
L1I RFO       ACCESS:     0  HIT:     0  MISS:     0  HIT %:     0  MISS %:     0  AVERAGE MISS PENALTY: 0
L1I PREFETCH  ACCESS:     0  HIT:     0  MISS:     0  HIT %:     0  MISS %:     0  AVERAGE MISS PENALTY: 0
L1I WRITEBACK ACCESS:     0  HIT:     0  MISS:     0  HIT %:     0  MISS %:     0  AVERAGE MISS PENALTY: 0

L2C TOTAL     ACCESS: 11948903  HIT: 5711157  MISS: 6237746  HIT %: 47.7965  MISS %: 52.2035  AVERAGE MISS PENALTY: 8.18001e+06
L2C LOAD      ACCESS: 3031097  HIT: 1172596  MISS: 1858501  HIT %: 38.6855  MISS %: 61.3145  AVERAGE MISS PENALTY: 2.60991e+07
L2C RFO       ACCESS: 294374  HIT: 103210  MISS: 191164  HIT %: 35.0608  MISS %: 64.9392  AVERAGE MISS PENALTY: 1.31745e+07
L2C PREFETCH  ACCESS: 6699684  HIT: 2519968  MISS: 4179716  HIT %: 37.6132  MISS %: 62.3868  AVERAGE MISS PENALTY: 270.031
L2C WRITEBACK ACCESS: 1923748  HIT: 1915383  MISS:  8365  HIT %: 99.5652  MISS %: 0.434828  AVERAGE MISS PENALTY: 0


LLC0 TOTAL     ACCESS: 921491  HIT: 319079  MISS: 602412  HIT %: 34.6264  MISS %: 65.3736  AVERAGE MISS PENALTY: 266.681
LLC0 LOAD      ACCESS: 234967  HIT: 59390  MISS: 175577  HIT %: 25.2759  MISS %: 74.7241  AVERAGE MISS PENALTY: 281.355
LLC0 RFO       ACCESS: 25283  HIT:  9987  MISS: 15296  HIT %: 39.5009  MISS %: 60.4991  AVERAGE MISS PENALTY: 272.662
LLC0 PREFETCH  ACCESS: 482158  HIT: 105779  MISS: 376379  HIT %: 21.9387  MISS %: 78.0613  AVERAGE MISS PENALTY: 284.505
LLC0 WRITEBACK ACCESS: 179083  HIT: 143923  MISS: 35160  HIT %: 80.3666  MISS %: 19.6334  AVERAGE MISS PENALTY: 0

LLC1 TOTAL     ACCESS: 945946  HIT: 324335  MISS: 621611  HIT %: 34.2868  MISS %: 65.7132  AVERAGE MISS PENALTY: 269.669
LLC1 LOAD      ACCESS: 224221  HIT: 55051  MISS: 169170  HIT %: 24.5521  MISS %: 75.4479  AVERAGE MISS PENALTY: 284.894
LLC1 RFO       ACCESS: 23729  HIT:  9476  MISS: 14253  HIT %: 39.9343  MISS %: 60.0657  AVERAGE MISS PENALTY: 276.508
LLC1 PREFETCH  ACCESS: 518672  HIT: 114936  MISS: 403736  HIT %: 22.1597  MISS %: 77.8403  AVERAGE MISS PENALTY: 286.06
LLC1 WRITEBACK ACCESS: 179324  HIT: 144872  MISS: 34452  HIT %: 80.7878  MISS %: 19.2122  AVERAGE MISS PENALTY: 0

LLC2 TOTAL     ACCESS: 961150  HIT: 325108  MISS: 636042  HIT %: 33.8249  MISS %: 66.1751  AVERAGE MISS PENALTY: 275.621
LLC2 LOAD      ACCESS: 223330  HIT: 55983  MISS: 167347  HIT %: 25.0674  MISS %: 74.9326  AVERAGE MISS PENALTY: 284.56
LLC2 RFO       ACCESS: 22750  HIT:  8977  MISS: 13773  HIT %: 39.4593  MISS %: 60.5407  AVERAGE MISS PENALTY: 279.069
LLC2 PREFETCH  ACCESS: 534839  HIT: 114826  MISS: 420013  HIT %: 21.4693  MISS %: 78.5307  AVERAGE MISS PENALTY: 294.855
LLC2 WRITEBACK ACCESS: 180231  HIT: 145322  MISS: 34909  HIT %: 80.631  MISS %: 19.369  AVERAGE MISS PENALTY: 0

LLC3 TOTAL     ACCESS: 963012  HIT: 328078  MISS: 634934  HIT %: 34.0679  MISS %: 65.9321  AVERAGE MISS PENALTY: 278.245
LLC3 LOAD      ACCESS: 222236  HIT: 55849  MISS: 166387  HIT %: 25.1305  MISS %: 74.8695  AVERAGE MISS PENALTY: 286.503
LLC3 RFO       ACCESS: 22790  HIT:  8969  MISS: 13821  HIT %: 39.355  MISS %: 60.645  AVERAGE MISS PENALTY: 281.78
LLC3 PREFETCH  ACCESS: 537167  HIT: 116658  MISS: 420509  HIT %: 21.7173  MISS %: 78.2827  AVERAGE MISS PENALTY: 297.502
LLC3 WRITEBACK ACCESS: 180819  HIT: 146602  MISS: 34217  HIT %: 81.0767  MISS %: 18.9233  AVERAGE MISS PENALTY: 0

LLC4 TOTAL     ACCESS: 970439  HIT: 333366  MISS: 637073  HIT %: 34.3521  MISS %: 65.6479  AVERAGE MISS PENALTY: 270.811
LLC4 LOAD      ACCESS: 229044  HIT: 59885  MISS: 169159  HIT %: 26.1456  MISS %: 73.8544  AVERAGE MISS PENALTY: 285.586
LLC4 RFO       ACCESS: 23424  HIT:  9315  MISS: 14109  HIT %: 39.7669  MISS %: 60.2331  AVERAGE MISS PENALTY: 279.256
LLC4 PREFETCH  ACCESS: 536058  HIT: 117320  MISS: 418738  HIT %: 21.8857  MISS %: 78.1143  AVERAGE MISS PENALTY: 287.237
LLC4 WRITEBACK ACCESS: 181913  HIT: 146846  MISS: 35067  HIT %: 80.7232  MISS %: 19.2768  AVERAGE MISS PENALTY: 0

LLC5 TOTAL     ACCESS: 975653  HIT: 338761  MISS: 636892  HIT %: 34.7215  MISS %: 65.2785  AVERAGE MISS PENALTY: 271.667
LLC5 LOAD      ACCESS: 228383  HIT: 61143  MISS: 167240  HIT %: 26.7721  MISS %: 73.2279  AVERAGE MISS PENALTY: 286.224
LLC5 RFO       ACCESS: 23342  HIT:  9209  MISS: 14133  HIT %: 39.4525  MISS %: 60.5475  AVERAGE MISS PENALTY: 278.879
LLC5 PREFETCH  ACCESS: 543175  HIT: 122052  MISS: 421123  HIT %: 22.4701  MISS %: 77.5299  AVERAGE MISS PENALTY: 287.832
LLC5 WRITEBACK ACCESS: 180753  HIT: 146357  MISS: 34396  HIT %: 80.9707  MISS %: 19.0293  AVERAGE MISS PENALTY: 0

LLC6 TOTAL     ACCESS: 972585  HIT: 335465  MISS: 637120  HIT %: 34.4921  MISS %: 65.5079  AVERAGE MISS PENALTY: 278.426
LLC6 LOAD      ACCESS: 228718  HIT: 59661  MISS: 169057  HIT %: 26.085  MISS %: 73.915  AVERAGE MISS PENALTY: 287.997
LLC6 RFO       ACCESS: 23004  HIT:  9017  MISS: 13987  HIT %: 39.1975  MISS %: 60.8025  AVERAGE MISS PENALTY: 282.762
LLC6 PREFETCH  ACCESS: 538598  HIT: 119710  MISS: 418888  HIT %: 22.2262  MISS %: 77.7738  AVERAGE MISS PENALTY: 297.807
LLC6 WRITEBACK ACCESS: 182265  HIT: 147077  MISS: 35188  HIT %: 80.694  MISS %: 19.306  AVERAGE MISS PENALTY: 0

LLC7 TOTAL     ACCESS: 964817  HIT: 328842  MISS: 635975  HIT %: 34.0834  MISS %: 65.9166  AVERAGE MISS PENALTY: 278.806
LLC7 LOAD      ACCESS: 223557  HIT: 55837  MISS: 167720  HIT %: 24.9766  MISS %: 75.0234  AVERAGE MISS PENALTY: 287.747
LLC7 RFO       ACCESS: 23118  HIT:  9102  MISS: 14016  HIT %: 39.3719  MISS %: 60.6281  AVERAGE MISS PENALTY: 284.032
LLC7 PREFETCH  ACCESS: 536805  HIT: 117402  MISS: 419403  HIT %: 21.8705  MISS %: 78.1295  AVERAGE MISS PENALTY: 298.213
LLC7 WRITEBACK ACCESS: 181337  HIT: 146501  MISS: 34836  HIT %: 80.7894  MISS %: 19.2106  AVERAGE MISS PENALTY: 0

Total Rob stall cycles : 	931292497
Total Load Rob Stall cycles : 	318539854
Average Rob Stall cycles : 	 13
Average Load Rob Stall cycles : 	 35

CPU 1 cumulative IPC: 0.202518 instructions: 200271284 cycles: 988903887
ITLB TOTAL     ACCESS: 33013855  HIT: 32694472  MISS: 319383  HIT %: 99.0326  MISS %: 0.967421  AVERAGE MISS PENALTY: 10.9361
ITLB LOAD      ACCESS: 33013855  HIT: 32694472  MISS: 319383  HIT %: 99.0326  MISS %: 0.967421  AVERAGE MISS PENALTY: 10.9361
ITLB RFO       ACCESS:     0  HIT:     0  MISS:     0  HIT %:     0  MISS %:     0  AVERAGE MISS PENALTY: 0
ITLB PREFETCH  ACCESS:     0  HIT:     0  MISS:     0  HIT %:     0  MISS %:     0  AVERAGE MISS PENALTY: 0
ITLB WRITEBACK ACCESS:     0  HIT:     0  MISS:     0  HIT %:     0  MISS %:     0  AVERAGE MISS PENALTY: 0

DTLB TOTAL     ACCESS: 80694949  HIT: 76865265  MISS: 3829684  HIT %: 95.2541  MISS %: 4.74588  AVERAGE MISS PENALTY: 35.4576
DTLB LOAD      ACCESS: 49589645  HIT: 46187629  MISS: 3402016  HIT %: 93.1397  MISS %: 6.86034  AVERAGE MISS PENALTY: 32.9726
DTLB RFO       ACCESS: 31105304  HIT: 30677636  MISS: 427668  HIT %: 98.6251  MISS %: 1.3749  AVERAGE MISS PENALTY: 55.2247
DTLB PREFETCH  ACCESS:     0  HIT:     0  MISS:     0  HIT %:     0  MISS %:     0  AVERAGE MISS PENALTY: 0
DTLB WRITEBACK ACCESS:     0  HIT:     0  MISS:     0  HIT %:     0  MISS %:     0  AVERAGE MISS PENALTY: 0

STLB TOTAL     ACCESS: 4149067  HIT: 3290043  MISS: 859024  HIT %: 79.296  MISS %: 20.704  AVERAGE MISS PENALTY: 100
STLB LOAD      ACCESS: 3721399  HIT: 3015977  MISS: 705422  HIT %: 81.0442  MISS %: 18.9558  AVERAGE MISS PENALTY: 100
STLB RFO       ACCESS: 427668  HIT: 274066  MISS: 153602  HIT %: 64.0838  MISS %: 35.9162  AVERAGE MISS PENALTY: 100
STLB PREFETCH  ACCESS:     0  HIT:     0  MISS:     0  HIT %:     0  MISS %:     0  AVERAGE MISS PENALTY: 0
STLB WRITEBACK ACCESS:     0  HIT:     0  MISS:     0  HIT %:     0  MISS %:     0  AVERAGE MISS PENALTY: 0

L1D TOTAL     ACCESS: 115562984  HIT: 108481180  MISS: 7081804  HIT %: 93.8719  MISS %: 6.12809  AVERAGE MISS PENALTY: 8.1819e+06
L1D LOAD      ACCESS: 51794558  HIT: 48831146  MISS: 2963412  HIT %: 94.2785  MISS %: 5.72147  AVERAGE MISS PENALTY: 1.51683e+07
L1D RFO       ACCESS: 36740702  HIT: 36426223  MISS: 314479  HIT %: 99.1441  MISS %: 0.855942  AVERAGE MISS PENALTY: 4.13124e+07
L1D PREFETCH  ACCESS: 27027724  HIT: 23223811  MISS: 3803913  HIT %: 85.9259  MISS %: 14.0741  AVERAGE MISS PENALTY: 188.124
L1D WRITEBACK ACCESS:     0  HIT:     0  MISS:     0  HIT %:     0  MISS %:     0  AVERAGE MISS PENALTY: 0

L1I TOTAL     ACCESS: 43335615  HIT: 43258498  MISS: 77117  HIT %: 99.822  MISS %: 0.177953  AVERAGE MISS PENALTY: 65.1747
L1I LOAD      ACCESS: 43335615  HIT: 43258498  MISS: 77117  HIT %: 99.822  MISS %: 0.177953  AVERAGE MISS PENALTY: 65.1747
L1I RFO       ACCESS:     0  HIT:     0  MISS:     0  HIT %:     0  MISS %:     0  AVERAGE MISS PENALTY: 0
L1I PREFETCH  ACCESS:     0  HIT:     0  MISS:     0  HIT %:     0  MISS %:     0  AVERAGE MISS PENALTY: 0
L1I WRITEBACK ACCESS:     0  HIT:     0  MISS:     0  HIT %:     0  MISS %:     0  AVERAGE MISS PENALTY: 0

L2C TOTAL     ACCESS: 11955371  HIT: 5696426  MISS: 6258945  HIT %: 47.6474  MISS %: 52.3526  AVERAGE MISS PENALTY: 8.14412e+06
L2C LOAD      ACCESS: 3035860  HIT: 1176134  MISS: 1859726  HIT %: 38.7414  MISS %: 61.2586  AVERAGE MISS PENALTY: 2.60217e+07
L2C RFO       ACCESS: 295087  HIT: 102867  MISS: 192220  HIT %: 34.8599  MISS %: 65.1401  AVERAGE MISS PENALTY: 1.34184e+07
L2C PREFETCH  ACCESS: 6698403  HIT: 2503685  MISS: 4194718  HIT %: 37.3773  MISS %: 62.6227  AVERAGE MISS PENALTY: 267.619
L2C WRITEBACK ACCESS: 1926021  HIT: 1913740  MISS: 12281  HIT %: 99.3624  MISS %: 0.637636  AVERAGE MISS PENALTY: 0


LLC0 TOTAL     ACCESS: 924816  HIT: 321648  MISS: 603168  HIT %: 34.7797  MISS %: 65.2203  AVERAGE MISS PENALTY: 265.256
LLC0 LOAD      ACCESS: 235311  HIT: 59441  MISS: 175870  HIT %: 25.2606  MISS %: 74.7394  AVERAGE MISS PENALTY: 279.729
LLC0 RFO       ACCESS: 25583  HIT: 10095  MISS: 15488  HIT %: 39.4598  MISS %: 60.5402  AVERAGE MISS PENALTY: 272.195
LLC0 PREFETCH  ACCESS: 483716  HIT: 106922  MISS: 376794  HIT %: 22.1043  MISS %: 77.8957  AVERAGE MISS PENALTY: 282.866
LLC0 WRITEBACK ACCESS: 180206  HIT: 145190  MISS: 35016  HIT %: 80.5689  MISS %: 19.4311  AVERAGE MISS PENALTY: 0

LLC1 TOTAL     ACCESS: 950579  HIT: 328336  MISS: 622243  HIT %: 34.5406  MISS %: 65.4594  AVERAGE MISS PENALTY: 267.597
LLC1 LOAD      ACCESS: 224902  HIT: 55483  MISS: 169419  HIT %: 24.6699  MISS %: 75.3301  AVERAGE MISS PENALTY: 282.187
LLC1 RFO       ACCESS: 23960  HIT:  9634  MISS: 14326  HIT %: 40.2087  MISS %: 59.7913  AVERAGE MISS PENALTY: 276.501
LLC1 PREFETCH  ACCESS: 521467  HIT: 117511  MISS: 403956  HIT %: 22.5347  MISS %: 77.4653  AVERAGE MISS PENALTY: 284.044
LLC1 WRITEBACK ACCESS: 180250  HIT: 145708  MISS: 34542  HIT %: 80.8366  MISS %: 19.1634  AVERAGE MISS PENALTY: 0

LLC2 TOTAL     ACCESS: 965217  HIT: 329502  MISS: 635715  HIT %: 34.1376  MISS %: 65.8624  AVERAGE MISS PENALTY: 273.696
LLC2 LOAD      ACCESS: 224830  HIT: 56843  MISS: 167987  HIT %: 25.2827  MISS %: 74.7173  AVERAGE MISS PENALTY: 282.526
LLC2 RFO       ACCESS: 22917  HIT:  9079  MISS: 13838  HIT %: 39.6169  MISS %: 60.3831  AVERAGE MISS PENALTY: 278.519
LLC2 PREFETCH  ACCESS: 536257  HIT: 117081  MISS: 419176  HIT %: 21.833  MISS %: 78.167  AVERAGE MISS PENALTY: 292.665
LLC2 WRITEBACK ACCESS: 181213  HIT: 146499  MISS: 34714  HIT %: 80.8435  MISS %: 19.1565  AVERAGE MISS PENALTY: 0

LLC3 TOTAL     ACCESS: 967293  HIT: 331544  MISS: 635749  HIT %: 34.2754  MISS %: 65.7246  AVERAGE MISS PENALTY: 275.515
[...]
LLC2 TOTAL     ACCESS: 964710  HIT: 328901  MISS: 635809  HIT %: 34.0933  MISS %: 65.9067  AVERAGE MISS PENALTY: 274.983
LLC2 LOAD      ACCESS: 225315  HIT: 57372  MISS: 167943  HIT %: 25.463  MISS %: 74.537  AVERAGE MISS PENALTY: 283.837
LLC2 RFO       ACCESS: 22748  HIT:  8968  MISS: 13780  HIT %: 39.4232  MISS %: 60.5768  AVERAGE MISS PENALTY: 278.441
LLC2 PREFETCH  ACCESS: 536586  HIT: 117265  MISS: 419321  HIT %: 21.8539  MISS %: 78.1461  AVERAGE MISS PENALTY: 294.121
LLC2 WRITEBACK ACCESS: 180061  HIT: 145296  MISS: 34765  HIT %: 80.6927  MISS %: 19.3073  AVERAGE MISS PENALTY: 0
LLC2 PREFETCH  REQUESTED:     0  ISSUED:     0  USEFUL: 94332  USELESS: 3256840
 USEFUL LOAD PREFETCHES:      94332 PREFETCH ISSUED TO LOWER LEVEL:    3357340  ACCURACY: 2.80972
 TIMELY PREFETCHES:      94332 LATE PREFETCHES: 0 DROPPED PREFETCHES: 0
LLC2 AVERAGE MISS LATENCY: 274.983 cycles
LLC3 TOTAL     ACCESS: 964904  HIT: 329938  MISS: 634966  HIT %: 34.1939  MISS %: 65.8061  AVERAGE MISS PENALTY: 277.016
LLC3 LOAD      ACCESS: 221843  HIT: 55552  MISS: 166291  HIT %: 25.0411  MISS %: 74.9589  AVERAGE MISS PENALTY: 285.796
LLC3 RFO       ACCESS: 22881  HIT:  9116  MISS: 13765  HIT %: 39.8409  MISS %: 60.1591  AVERAGE MISS PENALTY: 280.825
LLC3 PREFETCH  ACCESS: 539108  HIT: 118986  MISS: 420122  HIT %: 22.0709  MISS %: 77.9291  AVERAGE MISS PENALTY: 296.354
LLC3 WRITEBACK ACCESS: 181072  HIT: 146284  MISS: 34788  HIT %: 80.7878  MISS %: 19.2122  AVERAGE MISS PENALTY: 0
LLC3 PREFETCH  REQUESTED:     0  ISSUED:     0  USEFUL: 96025  USELESS: 3261759
 USEFUL LOAD PREFETCHES:      96025 PREFETCH ISSUED TO LOWER LEVEL:    3363714  ACCURACY: 2.85473
 TIMELY PREFETCHES:      96025 LATE PREFETCHES: 0 DROPPED PREFETCHES: 0
LLC3 AVERAGE MISS LATENCY: 277.016 cycles
LLC4 TOTAL     ACCESS: 971761  HIT: 335550  MISS: 636211  HIT %: 34.5301  MISS %: 65.4699  AVERAGE MISS PENALTY: 270.192
LLC4 LOAD      ACCESS: 230039  HIT: 61088  MISS: 168951  HIT %: 26.5555  MISS %: 73.4445  AVERAGE MISS PENALTY: 285.186
LLC4 RFO       ACCESS: 23412  HIT:  9350  MISS: 14062  HIT %: 39.9368  MISS %: 60.0632  AVERAGE MISS PENALTY: 277.662
LLC4 PREFETCH  ACCESS: 536764  HIT: 118631  MISS: 418133  HIT %: 22.1011  MISS %: 77.8989  AVERAGE MISS PENALTY: 286.541
LLC4 WRITEBACK ACCESS: 181546  HIT: 146481  MISS: 35065  HIT %: 80.6853  MISS %: 19.3147  AVERAGE MISS PENALTY: 0
LLC4 PREFETCH  REQUESTED:     0  ISSUED:     0  USEFUL: 97338  USELESS: 3245817
 USEFUL LOAD PREFETCHES:      97338 PREFETCH ISSUED TO LOWER LEVEL:    3348771  ACCURACY: 2.90668
 TIMELY PREFETCHES:      97338 LATE PREFETCHES: 0 DROPPED PREFETCHES: 0
LLC4 AVERAGE MISS LATENCY: 270.192 cycles
LLC5 TOTAL     ACCESS: 974826  HIT: 337191  MISS: 637635  HIT %: 34.5899  MISS %: 65.4101  AVERAGE MISS PENALTY: 270.792
LLC5 LOAD      ACCESS: 225119  HIT: 57916  MISS: 167203  HIT %: 25.7268  MISS %: 74.2732  AVERAGE MISS PENALTY: 285.052
LLC5 RFO       ACCESS: 23281  HIT:  9209  MISS: 14072  HIT %: 39.5559  MISS %: 60.4441  AVERAGE MISS PENALTY: 280.331
LLC5 PREFETCH  ACCESS: 546142  HIT: 124743  MISS: 421399  HIT %: 22.8408  MISS %: 77.1592  AVERAGE MISS PENALTY: 287.281
LLC5 WRITEBACK ACCESS: 180284  HIT: 145323  MISS: 34961  HIT %: 80.6078  MISS %: 19.3922  AVERAGE MISS PENALTY: 0
LLC5 PREFETCH  REQUESTED:     0  ISSUED:     0  USEFUL: 95910  USELESS: 3271038
 USEFUL LOAD PREFETCHES:      95910 PREFETCH ISSUED TO LOWER LEVEL:    3372329  ACCURACY: 2.84403
 TIMELY PREFETCHES:      95910 LATE PREFETCHES: 0 DROPPED PREFETCHES: 0
LLC5 AVERAGE MISS LATENCY: 270.792 cycles
LLC6 TOTAL     ACCESS: 972088  HIT: 335619  MISS: 636469  HIT %: 34.5256  MISS %: 65.4744  AVERAGE MISS PENALTY: 277.767
LLC6 LOAD      ACCESS: 228904  HIT: 59782  MISS: 169122  HIT %: 26.1166  MISS %: 73.8834  AVERAGE MISS PENALTY: 286.895
LLC6 RFO       ACCESS: 23078  HIT:  9248  MISS: 13830  HIT %: 40.0728  MISS %: 59.9272  AVERAGE MISS PENALTY: 281.613
LLC6 PREFETCH  ACCESS: 538273  HIT: 119880  MISS: 418393  HIT %: 22.2712  MISS %: 77.7288  AVERAGE MISS PENALTY: 297.269
LLC6 WRITEBACK ACCESS: 181833  HIT: 146709  MISS: 35124  HIT %: 80.6834  MISS %: 19.3166  AVERAGE MISS PENALTY: 0
LLC6 PREFETCH  REQUESTED:     0  ISSUED:     0  USEFUL: 96079  USELESS: 3251736
 USEFUL LOAD PREFETCHES:      96079 PREFETCH ISSUED TO LOWER LEVEL:    3353330  ACCURACY: 2.86518
 TIMELY PREFETCHES:      96079 LATE PREFETCHES: 0 DROPPED PREFETCHES: 0
LLC6 AVERAGE MISS LATENCY: 277.767 cycles
LLC7 TOTAL     ACCESS: 966297  HIT: 331122  MISS: 635175  HIT %: 34.2671  MISS %: 65.7329  AVERAGE MISS PENALTY: 278.491
LLC7 LOAD      ACCESS: 225086  HIT: 57149  MISS: 167937  HIT %: 25.3899  MISS %: 74.6101  AVERAGE MISS PENALTY: 288.057
LLC7 RFO       ACCESS: 23225  HIT:  9173  MISS: 14052  HIT %: 39.4962  MISS %: 60.5038  AVERAGE MISS PENALTY: 282.537
LLC7 PREFETCH  ACCESS: 536544  HIT: 118296  MISS: 418248  HIT %: 22.0478  MISS %: 77.9522  AVERAGE MISS PENALTY: 297.778
LLC7 WRITEBACK ACCESS: 181442  HIT: 146504  MISS: 34938  HIT %: 80.7443  MISS %: 19.2557  AVERAGE MISS PENALTY: 0
LLC7 PREFETCH  REQUESTED:     0  ISSUED:     0  USEFUL: 94187  USELESS: 3255156
 USEFUL LOAD PREFETCHES:      94187 PREFETCH ISSUED TO LOWER LEVEL:    3355099  ACCURACY: 2.80728
 TIMELY PREFETCHES:      94187 LATE PREFETCHES: 0 DROPPED PREFETCHES: 0
LLC7 AVERAGE MISS LATENCY: 278.491 cycles
ROI Average ROB Stall Cycles:	13.1982
ROI Total ROB Stalls Cycles:	930870457
ROI TOTAL ROB counter      :	70530256
ROI Average Load ROB Stall Cycles:	35.196
ROI Total Load ROB Stalls Cycle  :	318290832
ROI Total Load ROB stalls Counter:	9043388
Major fault: 0 Minor fault: 48112

CPU 7 cumulative IPC: 0.202606 instructions: 200000000 cycles: 987135490
ITLB TOTAL     ACCESS: 32970522  HIT: 32651499  MISS: 319023  HIT %: 99.0324  MISS %: 0.967601  AVERAGE MISS PENALTY: 10.9449
ITLB LOAD      ACCESS: 32970522  HIT: 32651499  MISS: 319023  HIT %: 99.0324  MISS %: 0.967601  AVERAGE MISS PENALTY: 10.9449
ITLB RFO       ACCESS:     0  HIT:     0  MISS:     0  HIT %:     0  MISS %:     0  AVERAGE MISS PENALTY: 0
ITLB PREFETCH  ACCESS:     0  HIT:     0  MISS:     0  HIT %:     0  MISS %:     0  AVERAGE MISS PENALTY: 0
ITLB WRITEBACK ACCESS:     0  HIT:     0  MISS:     0  HIT %:     0  MISS %:     0  AVERAGE MISS PENALTY: 0
ITLB PREFETCH  REQUESTED:     0  ISSUED:     0  USEFUL:     0  USELESS:     0
 USEFUL LOAD PREFETCHES:          0 PREFETCH ISSUED TO LOWER LEVEL:          0  ACCURACY: -nan
 TIMELY PREFETCHES:          0 LATE PREFETCHES: 0 DROPPED PREFETCHES: 0
ITLB AVERAGE MISS LATENCY: 10.9449 cycles
DTLB TOTAL     ACCESS: 80580974  HIT: 76756526  MISS: 3824448  HIT %: 95.2539  MISS %: 4.74609  AVERAGE MISS PENALTY: 35.5391
DTLB LOAD      ACCESS: 49518278  HIT: 46121058  MISS: 3397220  HIT %: 93.1395  MISS %: 6.86054  AVERAGE MISS PENALTY: 33.0285
DTLB RFO       ACCESS: 31062696  HIT: 30635468  MISS: 427228  HIT %: 98.6246  MISS %: 1.37537  AVERAGE MISS PENALTY: 55.5028
DTLB PREFETCH  ACCESS:     0  HIT:     0  MISS:     0  HIT %:     0  MISS %:     0  AVERAGE MISS PENALTY: 0
DTLB WRITEBACK ACCESS:     0  HIT:     0  MISS:     0  HIT %:     0  MISS %:     0  AVERAGE MISS PENALTY: 0
DTLB PREFETCH  REQUESTED:     0  ISSUED:     0  USEFUL:     0  USELESS:     0
 USEFUL LOAD PREFETCHES:          0 PREFETCH ISSUED TO LOWER LEVEL:          0  ACCURACY: -nan
 TIMELY PREFETCHES:          0 LATE PREFETCHES: 0 DROPPED PREFETCHES: 0
DTLB AVERAGE MISS LATENCY: 35.5391 cycles
STLB TOTAL     ACCESS: 4143471  HIT: 3285587  MISS: 857884  HIT %: 79.2955  MISS %: 20.7045  AVERAGE MISS PENALTY: 100
STLB LOAD      ACCESS: 3716243  HIT: 3011892  MISS: 704351  HIT %: 81.0467  MISS %: 18.9533  AVERAGE MISS PENALTY: 100
STLB RFO       ACCESS: 427228  HIT: 273695  MISS: 153533  HIT %: 64.063  MISS %: 35.937  AVERAGE MISS PENALTY: 100
STLB PREFETCH  ACCESS:     0  HIT:     0  MISS:     0  HIT %:     0  MISS %:     0  AVERAGE MISS PENALTY: 0
STLB WRITEBACK ACCESS:     0  HIT:     0  MISS:     0  HIT %:     0  MISS %:     0  AVERAGE MISS PENALTY: 0
STLB PREFETCH  REQUESTED:     0  ISSUED:     0  USEFUL:     0  USELESS:     0
 USEFUL LOAD PREFETCHES:          0 PREFETCH ISSUED TO LOWER LEVEL:          0  ACCURACY: -nan
 TIMELY PREFETCHES:          0 LATE PREFETCHES: 0 DROPPED PREFETCHES: 0
STLB AVERAGE MISS LATENCY: 100 cycles
L1D TOTAL     ACCESS: 115404534  HIT: 108329587  MISS: 7074947  HIT %: 93.8694  MISS %: 6.13056  AVERAGE MISS PENALTY: 8.17073e+06
L1D LOAD      ACCESS: 51719910  HIT: 48760342  MISS: 2959568  HIT %: 94.2777  MISS %: 5.7223  AVERAGE MISS PENALTY: 1.51598e+07
L1D RFO       ACCESS: 36690936  HIT: 36377078  MISS: 313858  HIT %: 99.1446  MISS %: 0.85541  AVERAGE MISS PENALTY: 4.12298e+07
L1D PREFETCH  ACCESS: 26993688  HIT: 23192167  MISS: 3801521  HIT %: 85.917  MISS %: 14.083  AVERAGE MISS PENALTY: 188.062
L1D WRITEBACK ACCESS:     0  HIT:     0  MISS:     0  HIT %:     0  MISS %:     0  AVERAGE MISS PENALTY: 0
L1D PREFETCH  REQUESTED: 28124386  ISSUED: 27959606  USEFUL: 635542  USELESS: 3165910
 USEFUL LOAD PREFETCHES:     635542 PREFETCH ISSUED TO LOWER LEVEL:    4663841  ACCURACY: 13.627
 TIMELY PREFETCHES:     635542 LATE PREFETCHES: 552971 DROPPED PREFETCHES: 164780
L1D AVERAGE MISS LATENCY: 1.82921e+06 cycles
L1I TOTAL     ACCESS: 43277708  HIT: 43200481  MISS: 77227  HIT %: 99.8216  MISS %: 0.178445  AVERAGE MISS PENALTY: 63.7105
L1I LOAD      ACCESS: 43277708  HIT: 43200481  MISS: 77227  HIT %: 99.8216  MISS %: 0.178445  AVERAGE MISS PENALTY: 63.7105
L1I RFO       ACCESS:     0  HIT:     0  MISS:     0  HIT %:     0  MISS %:     0  AVERAGE MISS PENALTY: 0
L1I PREFETCH  ACCESS:     0  HIT:     0  MISS:     0  HIT %:     0  MISS %:     0  AVERAGE MISS PENALTY: 0
L1I WRITEBACK ACCESS:     0  HIT:     0  MISS:     0  HIT %:     0  MISS %:     0  AVERAGE MISS PENALTY: 0
L1I PREFETCH  REQUESTED:     0  ISSUED:     0  USEFUL:     0  USELESS:     0
 USEFUL LOAD PREFETCHES:          0 PREFETCH ISSUED TO LOWER LEVEL:          0  ACCURACY: -nan
 TIMELY PREFETCHES:          0 LATE PREFETCHES: 0 DROPPED PREFETCHES: 0
L1I AVERAGE MISS LATENCY: 63.7105 cycles
L2C TOTAL     ACCESS: 11945511  HIT: 5678932  MISS: 6266579  HIT %: 47.5403  MISS %: 52.4597  AVERAGE MISS PENALTY: 8.15854e+06
L2C LOAD      ACCESS: 3032190  HIT: 1166713  MISS: 1865477  HIT %: 38.4776  MISS %: 61.5224  AVERAGE MISS PENALTY: 2.60295e+07
L2C RFO       ACCESS: 294495  HIT: 103391  MISS: 191104  HIT %: 35.1079  MISS %: 64.8921  AVERAGE MISS PENALTY: 1.34354e+07
L2C PREFETCH  ACCESS: 6695331  HIT: 2497866  MISS: 4197465  HIT %: 37.3076  MISS %: 62.6924  AVERAGE MISS PENALTY: 267.36
L2C WRITEBACK ACCESS: 1923495  HIT: 1910962  MISS: 12533  HIT %: 99.3484  MISS %: 0.651574  AVERAGE MISS PENALTY: 0
L2C PREFETCH  REQUESTED: 4894552  ISSUED: 4825436  USEFUL: 358244  USELESS: 3837720
 USEFUL LOAD PREFETCHES:     358244 PREFETCH ISSUED TO LOWER LEVEL:    4504783  ACCURACY: 7.95253
 TIMELY PREFETCHES:     358244 LATE PREFETCHES: 249864 DROPPED PREFETCHES: 69116
L2C AVERAGE MISS LATENCY: 259.908 cycles
LLC0 TOTAL     ACCESS: 923691  HIT: 322385  MISS: 601306  HIT %: 34.9018  MISS %: 65.0982  AVERAGE MISS PENALTY: 265.344
LLC0 LOAD      ACCESS: 236508  HIT: 61173  MISS: 175335  HIT %: 25.8651  MISS %: 74.1349  AVERAGE MISS PENALTY: 278.842
LLC0 RFO       ACCESS: 25248  HIT:  9970  MISS: 15278  HIT %: 39.4883  MISS %: 60.5117  AVERAGE MISS PENALTY: 272.427
LLC0 PREFETCH  ACCESS: 484233  HIT: 108462  MISS: 375771  HIT %: 22.3987  MISS %: 77.6013  AVERAGE MISS PENALTY: 283.417
LLC0 WRITEBACK ACCESS: 177702  HIT: 142780  MISS: 34922  HIT %: 80.348  MISS %: 19.652  AVERAGE MISS PENALTY: 0
LLC0 PREFETCH  REQUESTED:     0  ISSUED:     0  USEFUL: 88097  USELESS: 2920048
 USEFUL LOAD PREFETCHES:      88097 PREFETCH ISSUED TO LOWER LEVEL:    3013711  ACCURACY: 2.92321
 TIMELY PREFETCHES:      88097 LATE PREFETCHES: 0 DROPPED PREFETCHES: 0
LLC0 AVERAGE MISS LATENCY: 265.344 cycles
Deadblocks : 1284149 Deadblock percentage : 732.397

LLC1 TOTAL     ACCESS: 952238  HIT: 330585  MISS: 621653  HIT %: 34.7166  MISS %: 65.2834  AVERAGE MISS PENALTY: 268.109
LLC1 LOAD      ACCESS: 225917  HIT: 56735  MISS: 169182  HIT %: 25.1132  MISS %: 74.8868  AVERAGE MISS PENALTY: 282.269
LLC1 RFO       ACCESS: 23757  HIT:  9550  MISS: 14207  HIT %: 40.1987  MISS %: 59.8013  AVERAGE MISS PENALTY: 277.018
LLC1 PREFETCH  ACCESS: 524349  HIT: 120321  MISS: 404028  HIT %: 22.9467  MISS %: 77.0533  AVERAGE MISS PENALTY: 284.585
LLC1 WRITEBACK ACCESS: 178215  HIT: 143979  MISS: 34236  HIT %: 80.7895  MISS %: 19.2105  AVERAGE MISS PENALTY: 0
LLC1 PREFETCH  REQUESTED:     0  ISSUED:     0  USEFUL: 93297  USELESS: 3134529
 USEFUL LOAD PREFETCHES:      93297 PREFETCH ISSUED TO LOWER LEVEL:    3233123  ACCURACY: 2.88566
 TIMELY PREFETCHES:      93297 LATE PREFETCHES: 0 DROPPED PREFETCHES: 0
LLC1 AVERAGE MISS LATENCY: 268.109 cycles
LLC2 TOTAL     ACCESS: 964453  HIT: 329208  MISS: 635245  HIT %: 34.1342  MISS %: 65.8658  AVERAGE MISS PENALTY: 273.969
LLC2 LOAD      ACCESS: 225079  HIT: 57500  MISS: 167579  HIT %: 25.5466  MISS %: 74.4534  AVERAGE MISS PENALTY: 282.685
LLC2 RFO       ACCESS: 22729  HIT:  9021  MISS: 13708  HIT %: 39.6894  MISS %: 60.3106  AVERAGE MISS PENALTY: 276.387
LLC2 PREFETCH  ACCESS: 537389  HIT: 118208  MISS: 419181  HIT %: 21.9967  MISS %: 78.0033  AVERAGE MISS PENALTY: 293.135
LLC2 WRITEBACK ACCESS: 179256  HIT: 144479  MISS: 34777  HIT %: 80.5993  MISS %: 19.4007  AVERAGE MISS PENALTY: 0
LLC2 PREFETCH  REQUESTED:     0  ISSUED:     0  USEFUL: 94332  USELESS: 3256840
 USEFUL LOAD PREFETCHES:      94332 PREFETCH ISSUED TO LOWER LEVEL:    3357340  ACCURACY: 2.80972
 TIMELY PREFETCHES:      94332 LATE PREFETCHES: 0 DROPPED PREFETCHES: 0
LLC2 AVERAGE MISS LATENCY: 273.969 cycles
LLC3 TOTAL     ACCESS: 964332  HIT: 329589  MISS: 634743  HIT %: 34.178  MISS %: 65.822  AVERAGE MISS PENALTY: 275.991
LLC3 LOAD      ACCESS: 222456  HIT: 56322  MISS: 166134  HIT %: 25.3183  MISS %: 74.6817  AVERAGE MISS PENALTY: 284.509
LLC3 RFO       ACCESS: 22847  HIT:  9020  MISS: 13827  HIT %: 39.48  MISS %: 60.52  AVERAGE MISS PENALTY: 280.89
LLC3 PREFETCH  ACCESS: 538630  HIT: 118813  MISS: 419817  HIT %: 22.0584  MISS %: 77.9416  AVERAGE MISS PENALTY: 295.446
LLC3 WRITEBACK ACCESS: 180399  HIT: 145434  MISS: 34965  HIT %: 80.618  MISS %: 19.382  AVERAGE MISS PENALTY: 0
LLC3 PREFETCH  REQUESTED:     0  ISSUED:     0  USEFUL: 96025  USELESS: 3261759
 USEFUL LOAD PREFETCHES:      96025 PREFETCH ISSUED TO LOWER LEVEL:    3363714  ACCURACY: 2.85473
 TIMELY PREFETCHES:      96025 LATE PREFETCHES: 0 DROPPED PREFETCHES: 0
LLC3 AVERAGE MISS LATENCY: 275.991 cycles
LLC4 TOTAL     ACCESS: 970832  HIT: 334860  MISS: 635972  HIT %: 34.4921  MISS %: 65.5079  AVERAGE MISS PENALTY: 269.224
LLC4 LOAD      ACCESS: 231365  HIT: 62418  MISS: 168947  HIT %: 26.9782  MISS %: 73.0218  AVERAGE MISS PENALTY: 283.819
LLC4 RFO       ACCESS: 23360  HIT:  9161  MISS: 14199  HIT %: 39.2166  MISS %: 60.7834  AVERAGE MISS PENALTY: 277.028
LLC4 PREFETCH  ACCESS: 535705  HIT: 118032  MISS: 417673  HIT %: 22.033  MISS %: 77.967  AVERAGE MISS PENALTY: 285.714
LLC4 WRITEBACK ACCESS: 180402  HIT: 145249  MISS: 35153  HIT %: 80.5141  MISS %: 19.4859  AVERAGE MISS PENALTY: 0
LLC4 PREFETCH  REQUESTED:     0  ISSUED:     0  USEFUL: 97338  USELESS: 3245817
 USEFUL LOAD PREFETCHES:      97338 PREFETCH ISSUED TO LOWER LEVEL:    3348771  ACCURACY: 2.90668
 TIMELY PREFETCHES:      97338 LATE PREFETCHES: 0 DROPPED PREFETCHES: 0
LLC4 AVERAGE MISS LATENCY: 269.224 cycles
LLC5 TOTAL     ACCESS: 975890  HIT: 339532  MISS: 636358  HIT %: 34.792  MISS %: 65.208  AVERAGE MISS PENALTY: 270.266
LLC5 LOAD      ACCESS: 225599  HIT: 58838  MISS: 166761  HIT %: 26.0808  MISS %: 73.9192  AVERAGE MISS PENALTY: 284.939
LLC5 RFO       ACCESS: 23213  HIT:  9132  MISS: 14081  HIT %: 39.34  MISS %: 60.66  AVERAGE MISS PENALTY: 278.512
LLC5 PREFETCH  ACCESS: 547813  HIT: 126894  MISS: 420919  HIT %: 23.1637  MISS %: 76.8363  AVERAGE MISS PENALTY: 286.391
LLC5 WRITEBACK ACCESS: 179265  HIT: 144668  MISS: 34597  HIT %: 80.7006  MISS %: 19.2994  AVERAGE MISS PENALTY: 0
LLC5 PREFETCH  REQUESTED:     0  ISSUED:     0  USEFUL: 95910  USELESS: 3271038
 USEFUL LOAD PREFETCHES:      95910 PREFETCH ISSUED TO LOWER LEVEL:    3372329  ACCURACY: 2.84403
 TIMELY PREFETCHES:      95910 LATE PREFETCHES: 0 DROPPED PREFETCHES: 0
LLC5 AVERAGE MISS LATENCY: 270.266 cycles
LLC6 TOTAL     ACCESS: 972924  HIT: 337108  MISS: 635816  HIT %: 34.649  MISS %: 65.351  AVERAGE MISS PENALTY: 276.811
LLC6 LOAD      ACCESS: 229651  HIT: 60754  MISS: 168897  HIT %: 26.4549  MISS %: 73.5451  AVERAGE MISS PENALTY: 284.875
LLC6 RFO       ACCESS: 23036  HIT:  9031  MISS: 14005  HIT %: 39.2039  MISS %: 60.7961  AVERAGE MISS PENALTY: 281.948
LLC6 PREFETCH  ACCESS: 539360  HIT: 121420  MISS: 417940  HIT %: 22.5119  MISS %: 77.4881  AVERAGE MISS PENALTY: 296.545
LLC6 WRITEBACK ACCESS: 180877  HIT: 145903  MISS: 34974  HIT %: 80.6642  MISS %: 19.3358  AVERAGE MISS PENALTY: 0
LLC6 PREFETCH  REQUESTED:     0  ISSUED:     0  USEFUL: 96079  USELESS: 3251736
 USEFUL LOAD PREFETCHES:      96079 PREFETCH ISSUED TO LOWER LEVEL:    3353330  ACCURACY: 2.86518
 TIMELY PREFETCHES:      96079 LATE PREFETCHES: 0 DROPPED PREFETCHES: 0
LLC6 AVERAGE MISS LATENCY: 276.811 cycles
LLC7 TOTAL     ACCESS: 966285  HIT: 331450  MISS: 634835  HIT %: 34.3015  MISS %: 65.6985  AVERAGE MISS PENALTY: 277
LLC7 LOAD      ACCESS: 225080  HIT: 57619  MISS: 167461  HIT %: 25.5993  MISS %: 74.4007  AVERAGE MISS PENALTY: 285.889
LLC7 RFO       ACCESS: 23099  HIT:  9116  MISS: 13983  HIT %: 39.4649  MISS %: 60.5351  AVERAGE MISS PENALTY: 282.833
LLC7 PREFETCH  ACCESS: 537617  HIT: 119308  MISS: 418309  HIT %: 22.192  MISS %: 77.808  AVERAGE MISS PENALTY: 296.477
LLC7 WRITEBACK ACCESS: 180489  HIT: 145407  MISS: 35082  HIT %: 80.5628  MISS %: 19.4372  AVERAGE MISS PENALTY: 0
LLC7 PREFETCH  REQUESTED:     0  ISSUED:     0  USEFUL: 94187  USELESS: 3255156
 USEFUL LOAD PREFETCHES:      94187 PREFETCH ISSUED TO LOWER LEVEL:    3355099  ACCURACY: 2.80728
 TIMELY PREFETCHES:      94187 LATE PREFETCHES: 0 DROPPED PREFETCHES: 0
LLC7 AVERAGE MISS LATENCY: 277 cycles
ROI Average ROB Stall Cycles:	13.179
ROI Total ROB Stalls Cycles:	929485347
ROI TOTAL ROB counter      :	70527951
ROI Average Load ROB Stall Cycles:	35.0335
ROI Total Load ROB Stalls Cycle  :	316751193
ROI Total Load ROB stalls Counter:	9041374
Major fault: 0 Minor fault: 48113








Interconnect Stats 
LINK 0 BW : 0LINK 1 BW : 0LINK 2 BW : 0LINK 3 BW : 0LINK 4 BW : 0LINK 5 BW : 0LINK 6 BW : 0LINK 7 BW : 0
DRAM Statistics
 CHANNEL 0
 RQ ROW_BUFFER_HIT: 2612997  ROW_BUFFER_MISS: 16371152
 DBUS_CONGESTED: 15312223
 WQ ROW_BUFFER_HIT: 371850  ROW_BUFFER_MISS: 4133308  FULL:     0

 CHANNEL 1
 RQ ROW_BUFFER_HIT: 2591127  ROW_BUFFER_MISS: 16550570
 DBUS_CONGESTED: 15312223
 WQ ROW_BUFFER_HIT: 355950  ROW_BUFFER_MISS: 4141947  FULL:     0

 AVG_CONGESTED_CYCLE: 6
DRAM PAGES: 2097152
Allocated PAGES: 384893
L2C destructor called
L1D destructor called
L1I destructor called
STLB destructor called
DTLB destructor called
ITLB destructor called
L2C destructor called
L1D destructor called
L1I destructor called
STLB destructor called
DTLB destructor called
ITLB destructor called
L2C destructor called
L1D destructor called
L1I destructor called
STLB destructor called
DTLB destructor called
ITLB destructor called
L2C destructor called
L1D destructor called
L1I destructor called
STLB destructor called
DTLB destructor called
ITLB destructor called
L2C destructor called
L1D destructor called
L1I destructor called
STLB destructor called
DTLB destructor called
ITLB destructor called
L2C destructor called
L1D destructor called
L1I destructor called
STLB destructor called
DTLB destructor called
ITLB destructor called
L2C destructor called
L1D destructor called
L1I destructor called
STLB destructor called
DTLB destructor called
ITLB destructor called
L2C destructor called
L1D destructor called
L1I destructor called
STLB destructor called
DTLB destructor called
ITLB destructor called
