
*** ChampSim Multicore Out-of-Order Simulator ***

Warmup Instructions: 200000000
Simulation Instructions: 200000000
Number of CPUs: 8
threads:1

L1I Configuration:
L1I_SET:64
L1I_WAY:8
L1I_RQ_SIZE:64
L1I_WQ_SIZE:64
L1I_PQ_SIZE:8
L1I_MSHR_SIZE:8

L1D Configuration:
L1D_SET:64
L1D_WAY:12
L1D_RQ_SIZE:64
L1D_WQ_SIZE:64
L1D_PQ_SIZE:8
L1D_MSHR_SIZE:16

L2C Configuration:
L2C_SET:1024
L2C_WAY:8
L2C_RQ_SIZE:32
L2C_WQ_SIZE:32
L2C_PQ_SIZE:16
L2C_MSHR_SIZE:32

LLC Configuration:
LLC_SET:2048
LLC_WAY:16
LLC SLICES:8
LLC_RQ_SIZE:64
LLC_WQ_SIZE:64
LLC_PQ_SIZE:32
LLC_MSHR_SIZE:64

Interconnect OFF
Attacker deprioritize is: OFF
Off-chip DRAM Size: 8192 MB Channels: 2 Width: 64-bit Data Rate: 3200 MT/s
PAGE SIZE in KB: 4.000000 
PAGE SIZE in MB: 0.003906 
PAGE offset in bits: 12 
CEASER-S_LLC:0
MIRAGE : 1
CEASER_LATENCY:3
REMAP : OFF
Partitions : 1
Multi-Step : OFF
BFS : OFF

CPU 0 runs /home/anubhav/spec_2017/620.omnetpp_s-141B.champsimtrace.xz
CPU 1 runs /home/anubhav/spec_2017/620.omnetpp_s-141B.champsimtrace.xz
CPU 2 runs /home/anubhav/spec_2017/620.omnetpp_s-141B.champsimtrace.xz
CPU 3 runs /home/anubhav/spec_2017/620.omnetpp_s-141B.champsimtrace.xz
CPU 4 runs /home/anubhav/spec_2017/620.omnetpp_s-141B.champsimtrace.xz
CPU 5 runs /home/anubhav/spec_2017/620.omnetpp_s-141B.champsimtrace.xz
CPU 6 runs /home/anubhav/spec_2017/620.omnetpp_s-141B.champsimtrace.xz
CPU 7 runs /home/anubhav/spec_2017/620.omnetpp_s-141B.champsimtrace.xz
CPU 0 Bimodal branch predictor
Initialize Hawkeye state
Initialize Hawkeye state
Initialize Hawkeye state
Initialize Hawkeye state
Initialize Hawkeye state
Initialize Hawkeye state
Initialize Hawkeye state
Initialize Hawkeye state
CPU 1 Bimodal branch predictor
Initialize Hawkeye state
Initialize Hawkeye state
Initialize Hawkeye state
Initialize Hawkeye state
Initialize Hawkeye state
Initialize Hawkeye state
Initialize Hawkeye state
Initialize Hawkeye state
CPU 2 Bimodal branch predictor
Initialize Hawkeye state
Initialize Hawkeye state
Initialize Hawkeye state
Initialize Hawkeye state
Initialize Hawkeye state
Initialize Hawkeye state
Initialize Hawkeye state
Initialize Hawkeye state
CPU 3 Bimodal branch predictor
Initialize Hawkeye state
Initialize Hawkeye state
Initialize Hawkeye state
Initialize Hawkeye state
Initialize Hawkeye state
Initialize Hawkeye state
Initialize Hawkeye state
Initialize Hawkeye state
CPU 4 Bimodal branch predictor
Initialize Hawkeye state
Initialize Hawkeye state
Initialize Hawkeye state
Initialize Hawkeye state
Initialize Hawkeye state
Initialize Hawkeye state
Initialize Hawkeye state
Initialize Hawkeye state
CPU 5 Bimodal branch predictor
Initialize Hawkeye state
Initialize Hawkeye state
Initialize Hawkeye state
Initialize Hawkeye state
Initialize Hawkeye state
Initialize Hawkeye state
Initialize Hawkeye state
Initialize Hawkeye state
CPU 6 Bimodal branch predictor
Initialize Hawkeye state
Initialize Hawkeye state
Initialize Hawkeye state
Initialize Hawkeye state
Initialize Hawkeye state
Initialize Hawkeye state
Initialize Hawkeye state
Initialize Hawkeye state
CPU 7 Bimodal branch predictor
Initialize Hawkeye state
Initialize Hawkeye state
Initialize Hawkeye state
Initialize Hawkeye state
Initialize Hawkeye state
Initialize Hawkeye state
Initialize Hawkeye state
Initialize Hawkeye state
Heartbeat CPU 3 instructions: 10000000 cycles: 9270516 heartbeat IPC: 1.07869 cumulative IPC: 1.07869 (Simulation time: 4 hr 51 min 24 sec) 
 Total Blocks : 262144 Invalid Blocks : 294
Heartbeat CPU 6 instructions: 10000000 cycles: 9270762 heartbeat IPC: 1.07866 cumulative IPC: 1.07866 (Simulation time: 4 hr 51 min 24 sec) 
 Total Blocks : 262144 Invalid Blocks : 293
Heartbeat CPU 4 instructions: 10000000 cycles: 9270901 heartbeat IPC: 1.07864 cumulative IPC: 1.07864 (Simulation time: 4 hr 51 min 24 sec) 
 Total Blocks : 262144 Invalid Blocks : 293
Heartbeat CPU 0 instructions: 10000000 cycles: 9270946 heartbeat IPC: 1.07864 cumulative IPC: 1.07864 (Simulation time: 4 hr 51 min 24 sec) 
 Total Blocks : 262144 Invalid Blocks : 293
Heartbeat CPU 2 instructions: 10000000 cycles: 9271059 heartbeat IPC: 1.07863 cumulative IPC: 1.07863 (Simulation time: 4 hr 51 min 24 sec) 
 Total Blocks : 262144 Invalid Blocks : 293
Heartbeat CPU 5 instructions: 10000000 cycles: 9271061 heartbeat IPC: 1.07863 cumulative IPC: 1.07863 (Simulation time: 4 hr 51 min 24 sec) 
 Total Blocks : 262144 Invalid Blocks : 293
Heartbeat CPU 1 instructions: 10000000 cycles: 9271065 heartbeat IPC: 1.07862 cumulative IPC: 1.07862 (Simulation time: 4 hr 51 min 24 sec) 
 Total Blocks : 262144 Invalid Blocks : 293
Heartbeat CPU 7 instructions: 10000000 cycles: 9271787 heartbeat IPC: 1.07854 cumulative IPC: 1.07854 (Simulation time: 4 hr 51 min 25 sec) 
 Total Blocks : 262144 Invalid Blocks : 293
Heartbeat CPU 3 instructions: 20000000 cycles: 18649348 heartbeat IPC: 1.06623 cumulative IPC: 1.07242 (Simulation time: 10 hr 9 min 35 sec) 
 Total Blocks : 262144 Invalid Blocks : 1
Heartbeat CPU 6 instructions: 20000000 cycles: 18649682 heartbeat IPC: 1.06622 cumulative IPC: 1.0724 (Simulation time: 10 hr 9 min 36 sec) 
 Total Blocks : 262144 Invalid Blocks : 1
Heartbeat CPU 4 instructions: 20000000 cycles: 18649896 heartbeat IPC: 1.06621 cumulative IPC: 1.07239 (Simulation time: 10 hr 9 min 37 sec) 
 Total Blocks : 262144 Invalid Blocks : 1
Heartbeat CPU 5 instructions: 20000000 cycles: 18649951 heartbeat IPC: 1.06622 cumulative IPC: 1.07239 (Simulation time: 10 hr 9 min 37 sec) 
 Total Blocks : 262144 Invalid Blocks : 1
Heartbeat CPU 0 instructions: 20000000 cycles: 18650027 heartbeat IPC: 1.0662 cumulative IPC: 1.07238 (Simulation time: 10 hr 9 min 37 sec) 
 Total Blocks : 262144 Invalid Blocks : 1
Heartbeat CPU 2 instructions: 20000000 cycles: 18650080 heartbeat IPC: 1.06621 cumulative IPC: 1.07238 (Simulation time: 10 hr 9 min 37 sec) 
 Total Blocks : 262144 Invalid Blocks : 1
Heartbeat CPU 1 instructions: 20000000 cycles: 18650195 heartbeat IPC: 1.0662 cumulative IPC: 1.07237 (Simulation time: 10 hr 9 min 37 sec) 
 Total Blocks : 262144 Invalid Blocks : 1
Heartbeat CPU 7 instructions: 20000000 cycles: 18650907 heartbeat IPC: 1.0662 cumulative IPC: 1.07233 (Simulation time: 10 hr 9 min 39 sec) 
 Total Blocks : 262144 Invalid Blocks : 1
Heartbeat CPU 3 instructions: 30000003 cycles: 28204028 heartbeat IPC: 1.04661 cumulative IPC: 1.06368 (Simulation time: 13 hr 55 min 39 sec) 
 Total Blocks : 262144 Invalid Blocks : 0
Heartbeat CPU 4 instructions: 30000003 cycles: 28204489 heartbeat IPC: 1.04662 cumulative IPC: 1.06366 (Simulation time: 13 hr 55 min 40 sec) 
 Total Blocks : 262144 Invalid Blocks : 0
Heartbeat CPU 6 instructions: 30000003 cycles: 28204587 heartbeat IPC: 1.04658 cumulative IPC: 1.06366 (Simulation time: 13 hr 55 min 40 sec) 
 Total Blocks : 262144 Invalid Blocks : 0
Heartbeat CPU 0 instructions: 30000003 cycles: 28204715 heartbeat IPC: 1.04661 cumulative IPC: 1.06365 (Simulation time: 13 hr 55 min 41 sec) 
 Total Blocks : 262144 Invalid Blocks : 0
Heartbeat CPU 5 instructions: 30000003 cycles: 28204903 heartbeat IPC: 1.04658 cumulative IPC: 1.06365 (Simulation time: 13 hr 55 min 42 sec) 
 Total Blocks : 262144 Invalid Blocks : 0
Heartbeat CPU 1 instructions: 30000003 cycles: 28205012 heartbeat IPC: 1.04659 cumulative IPC: 1.06364 (Simulation time: 13 hr 55 min 43 sec) 
 Total Blocks : 262144 Invalid Blocks : 0
Heartbeat CPU 2 instructions: 30000003 cycles: 28205033 heartbeat IPC: 1.04658 cumulative IPC: 1.06364 (Simulation time: 13 hr 55 min 43 sec) 
 Total Blocks : 262144 Invalid Blocks : 0
Heartbeat CPU 7 instructions: 30000003 cycles: 28206158 heartbeat IPC: 1.04655 cumulative IPC: 1.0636 (Simulation time: 13 hr 55 min 46 sec) 
 Total Blocks : 262144 Invalid Blocks : 0
Heartbeat CPU 3 instructions: 40000001 cycles: 37614583 heartbeat IPC: 1.06264 cumulative IPC: 1.06342 (Simulation time: 16 hr 50 min 17 sec) 
 Total Blocks : 262144 Invalid Blocks : 0
Heartbeat CPU 5 instructions: 40000001 cycles: 37614908 heartbeat IPC: 1.0627 cumulative IPC: 1.06341 (Simulation time: 16 hr 50 min 17 sec) 
 Total Blocks : 262144 Invalid Blocks : 0
Heartbeat CPU 4 instructions: 40000001 cycles: 37615082 heartbeat IPC: 1.06263 cumulative IPC: 1.0634 (Simulation time: 16 hr 50 min 17 sec) 
 Total Blocks : 262144 Invalid Blocks : 0
Heartbeat CPU 0 instructions: 40000001 cycles: 37615200 heartbeat IPC: 1.06264 cumulative IPC: 1.0634 (Simulation time: 16 hr 50 min 17 sec) 
 Total Blocks : 262144 Invalid Blocks : 0
Heartbeat CPU 6 instructions: 40000001 cycles: 37615236 heartbeat IPC: 1.06263 cumulative IPC: 1.0634 (Simulation time: 16 hr 50 min 17 sec) 
 Total Blocks : 262144 Invalid Blocks : 0
Heartbeat CPU 1 instructions: 40000001 cycles: 37615609 heartbeat IPC: 1.06263 cumulative IPC: 1.06339 (Simulation time: 16 hr 50 min 18 sec) 
 Total Blocks : 262144 Invalid Blocks : 0
Heartbeat CPU 2 instructions: 40000001 cycles: 37615654 heartbeat IPC: 1.06263 cumulative IPC: 1.06339 (Simulation time: 16 hr 50 min 18 sec) 
 Total Blocks : 262144 Invalid Blocks : 0
Heartbeat CPU 7 instructions: 40000001 cycles: 37617237 heartbeat IPC: 1.06258 cumulative IPC: 1.06334 (Simulation time: 16 hr 50 min 18 sec) 
 Total Blocks : 262144 Invalid Blocks : 0
Heartbeat CPU 3 instructions: 50000000 cycles: 47221165 heartbeat IPC: 1.04095 cumulative IPC: 1.05885 (Simulation time: 19 hr 18 min 27 sec) 
 Total Blocks : 262144 Invalid Blocks : 0
Heartbeat CPU 5 instructions: 50000000 cycles: 47221648 heartbeat IPC: 1.04094 cumulative IPC: 1.05884 (Simulation time: 19 hr 18 min 28 sec) 
 Total Blocks : 262144 Invalid Blocks : 0
Heartbeat CPU 4 instructions: 50000000 cycles: 47221692 heartbeat IPC: 1.04095 cumulative IPC: 1.05884 (Simulation time: 19 hr 18 min 28 sec) 
 Total Blocks : 262144 Invalid Blocks : 0
Heartbeat CPU 0 instructions: 50000000 cycles: 47221779 heartbeat IPC: 1.04095 cumulative IPC: 1.05883 (Simulation time: 19 hr 18 min 28 sec) 
 Total Blocks : 262144 Invalid Blocks : 0
Heartbeat CPU 6 instructions: 50000000 cycles: 47222162 heartbeat IPC: 1.04092 cumulative IPC: 1.05882 (Simulation time: 19 hr 18 min 29 sec) 
 Total Blocks : 262144 Invalid Blocks : 0
Heartbeat CPU 1 instructions: 50000000 cycles: 47222185 heartbeat IPC: 1.04095 cumulative IPC: 1.05882 (Simulation time: 19 hr 18 min 29 sec) 
 Total Blocks : 262144 Invalid Blocks : 0
Heartbeat CPU 2 instructions: 50000000 cycles: 47222417 heartbeat IPC: 1.04093 cumulative IPC: 1.05882 (Simulation time: 19 hr 18 min 30 sec) 
 Total Blocks : 262144 Invalid Blocks : 0
Heartbeat CPU 7 instructions: 50000000 cycles: 47224624 heartbeat IPC: 1.04087 cumulative IPC: 1.05877 (Simulation time: 19 hr 18 min 33 sec) 
 Total Blocks : 262144 Invalid Blocks : 0
Heartbeat CPU 3 instructions: 60000001 cycles: 56511458 heartbeat IPC: 1.07639 cumulative IPC: 1.06173 (Simulation time: 20 hr 58 min 5 sec) 
 Total Blocks : 262144 Invalid Blocks : 0
Heartbeat CPU 4 instructions: 60000001 cycles: 56511966 heartbeat IPC: 1.07639 cumulative IPC: 1.06172 (Simulation time: 20 hr 58 min 5 sec) 
 Total Blocks : 262144 Invalid Blocks : 0
Heartbeat CPU 0 instructions: 60000001 cycles: 56512124 heartbeat IPC: 1.07639 cumulative IPC: 1.06172 (Simulation time: 20 hr 58 min 5 sec) 
 Total Blocks : 262144 Invalid Blocks : 0
Heartbeat CPU 5 instructions: 60000001 cycles: 56512372 heartbeat IPC: 1.07634 cumulative IPC: 1.06171 (Simulation time: 20 hr 58 min 5 sec) 
 Total Blocks : 262144 Invalid Blocks : 0
Heartbeat CPU 1 instructions: 60000001 cycles: 56512654 heartbeat IPC: 1.07637 cumulative IPC: 1.06171 (Simulation time: 20 hr 58 min 5 sec) 
 Total Blocks : 262144 Invalid Blocks : 0
Heartbeat CPU 6 instructions: 60000001 cycles: 56512791 heartbeat IPC: 1.07635 cumulative IPC: 1.06171 (Simulation time: 20 hr 58 min 5 sec) 
 Total Blocks : 262144 Invalid Blocks : 0
Heartbeat CPU 2 instructions: 60000001 cycles: 56513006 heartbeat IPC: 1.07636 cumulative IPC: 1.0617 (Simulation time: 20 hr 58 min 5 sec) 
 Total Blocks : 262144 Invalid Blocks : 0
Heartbeat CPU 7 instructions: 60000001 cycles: 56515497 heartbeat IPC: 1.07633 cumulative IPC: 1.06166 (Simulation time: 20 hr 58 min 5 sec) 
 Total Blocks : 262144 Invalid Blocks : 0
Heartbeat CPU 3 instructions: 70000000 cycles: 65968142 heartbeat IPC: 1.05745 cumulative IPC: 1.06112 (Simulation time: 22 hr 20 min 11 sec) 
 Total Blocks : 262144 Invalid Blocks : 0
Heartbeat CPU 4 instructions: 70000000 cycles: 65968737 heartbeat IPC: 1.05744 cumulative IPC: 1.06111 (Simulation time: 22 hr 20 min 12 sec) 
 Total Blocks : 262144 Invalid Blocks : 0
Heartbeat CPU 0 instructions: 70000000 cycles: 65969094 heartbeat IPC: 1.05742 cumulative IPC: 1.0611 (Simulation time: 22 hr 20 min 13 sec) 
 Total Blocks : 262144 Invalid Blocks : 0
Heartbeat CPU 5 instructions: 70000000 cycles: 65969361 heartbeat IPC: 1.05742 cumulative IPC: 1.0611 (Simulation time: 22 hr 20 min 13 sec) 
 Total Blocks : 262144 Invalid Blocks : 0
Heartbeat CPU 1 instructions: 70000000 cycles: 65969363 heartbeat IPC: 1.05745 cumulative IPC: 1.0611 (Simulation time: 22 hr 20 min 13 sec) 
 Total Blocks : 262144 Invalid Blocks : 0
Heartbeat CPU 2 instructions: 70000000 cycles: 65969889 heartbeat IPC: 1.05743 cumulative IPC: 1.06109 (Simulation time: 22 hr 20 min 14 sec) 
 Total Blocks : 262144 Invalid Blocks : 0
Heartbeat CPU 6 instructions: 70000000 cycles: 65969997 heartbeat IPC: 1.05739 cumulative IPC: 1.06109 (Simulation time: 22 hr 20 min 14 sec) 
 Total Blocks : 262144 Invalid Blocks : 0
Heartbeat CPU 7 instructions: 70000000 cycles: 65972814 heartbeat IPC: 1.05738 cumulative IPC: 1.06104 (Simulation time: 22 hr 20 min 16 sec) 
 Total Blocks : 262144 Invalid Blocks : 0
Heartbeat CPU 3 instructions: 80000000 cycles: 75425959 heartbeat IPC: 1.05733 cumulative IPC: 1.06064 (Simulation time: 22 hr 59 min 2 sec) 
 Total Blocks : 262144 Invalid Blocks : 0
Heartbeat CPU 4 instructions: 80000000 cycles: 75426854 heartbeat IPC: 1.05729 cumulative IPC: 1.06063 (Simulation time: 22 hr 59 min 2 sec) 
 Total Blocks : 262144 Invalid Blocks : 0
Heartbeat CPU 0 instructions: 80000000 cycles: 75427292 heartbeat IPC: 1.05728 cumulative IPC: 1.06062 (Simulation time: 22 hr 59 min 2 sec) 
 Total Blocks : 262144 Invalid Blocks : 0
Heartbeat CPU 1 instructions: 80000000 cycles: 75427596 heartbeat IPC: 1.05728 cumulative IPC: 1.06062 (Simulation time: 22 hr 59 min 2 sec) 
 Total Blocks : 262144 Invalid Blocks : 0
Heartbeat CPU 5 instructions: 80000000 cycles: 75427708 heartbeat IPC: 1.05727 cumulative IPC: 1.06062 (Simulation time: 22 hr 59 min 2 sec) 
 Total Blocks : 262144 Invalid Blocks : 0
Heartbeat CPU 2 instructions: 80000000 cycles: 75428171 heartbeat IPC: 1.05727 cumulative IPC: 1.06061 (Simulation time: 22 hr 59 min 2 sec) 
 Total Blocks : 262144 Invalid Blocks : 0
Heartbeat CPU 6 instructions: 80000000 cycles: 75428682 heartbeat IPC: 1.05723 cumulative IPC: 1.0606 (Simulation time: 22 hr 59 min 2 sec) 
 Total Blocks : 262144 Invalid Blocks : 0
Heartbeat CPU 7 instructions: 80000000 cycles: 75431346 heartbeat IPC: 1.05725 cumulative IPC: 1.06057 (Simulation time: 22 hr 59 min 2 sec) 
 Total Blocks : 262144 Invalid Blocks : 0
Heartbeat CPU 3 instructions: 90000002 cycles: 84808275 heartbeat IPC: 1.06584 cumulative IPC: 1.06122 (Simulation time: 23 hr 22 min 7 sec) 
 Total Blocks : 262144 Invalid Blocks : 0
Heartbeat CPU 4 instructions: 90000002 cycles: 84808970 heartbeat IPC: 1.06586 cumulative IPC: 1.06121 (Simulation time: 23 hr 22 min 7 sec) 
 Total Blocks : 262144 Invalid Blocks : 0
Heartbeat CPU 0 instructions: 90000002 cycles: 84809482 heartbeat IPC: 1.06585 cumulative IPC: 1.0612 (Simulation time: 23 hr 22 min 7 sec) 
 Total Blocks : 262144 Invalid Blocks : 0
Heartbeat CPU 1 instructions: 90000002 cycles: 84809884 heartbeat IPC: 1.06584 cumulative IPC: 1.0612 (Simulation time: 23 hr 22 min 7 sec) 
 Total Blocks : 262144 Invalid Blocks : 0
Heartbeat CPU 5 instructions: 90000002 cycles: 84809931 heartbeat IPC: 1.06585 cumulative IPC: 1.0612 (Simulation time: 23 hr 22 min 7 sec) 
 Total Blocks : 262144 Invalid Blocks : 0
Heartbeat CPU 2 instructions: 90000002 cycles: 84810335 heartbeat IPC: 1.06585 cumulative IPC: 1.06119 (Simulation time: 23 hr 22 min 8 sec) 
 Total Blocks : 262144 Invalid Blocks : 0
Heartbeat CPU 6 instructions: 90000002 cycles: 84810872 heartbeat IPC: 1.06585 cumulative IPC: 1.06118 (Simulation time: 23 hr 22 min 8 sec) 
 Total Blocks : 262144 Invalid Blocks : 0
Heartbeat CPU 7 instructions: 90000002 cycles: 84814226 heartbeat IPC: 1.06577 cumulative IPC: 1.06114 (Simulation time: 23 hr 22 min 8 sec) 
 Total Blocks : 262144 Invalid Blocks : 0
Heartbeat CPU 3 instructions: 100000000 cycles: 94240298 heartbeat IPC: 1.06022 cumulative IPC: 1.06112 (Simulation time: 23 hr 43 min 55 sec) 
 Total Blocks : 262144 Invalid Blocks : 0
Heartbeat CPU 4 instructions: 100000000 cycles: 94241300 heartbeat IPC: 1.06018 cumulative IPC: 1.06111 (Simulation time: 23 hr 43 min 55 sec) 
 Total Blocks : 262144 Invalid Blocks : 0
Heartbeat CPU 0 instructions: 100000000 cycles: 94241821 heartbeat IPC: 1.06018 cumulative IPC: 1.0611 (Simulation time: 23 hr 43 min 55 sec) 
 Total Blocks : 262144 Invalid Blocks : 0
Heartbeat CPU 1 instructions: 100000000 cycles: 94242044 heartbeat IPC: 1.0602 cumulative IPC: 1.0611 (Simulation time: 23 hr 43 min 55 sec) 
 Total Blocks : 262144 Invalid Blocks : 0
Heartbeat CPU 5 instructions: 100000000 cycles: 94242372 heartbeat IPC: 1.06017 cumulative IPC: 1.06109 (Simulation time: 23 hr 43 min 55 sec) 
 Total Blocks : 262144 Invalid Blocks : 0
Heartbeat CPU 2 instructions: 100000000 cycles: 94242544 heartbeat IPC: 1.0602 cumulative IPC: 1.06109 (Simulation time: 23 hr 43 min 55 sec) 
 Total Blocks : 262144 Invalid Blocks : 0
Heartbeat CPU 6 instructions: 100000000 cycles: 94243291 heartbeat IPC: 1.06017 cumulative IPC: 1.06108 (Simulation time: 23 hr 43 min 55 sec) 
 Total Blocks : 262144 Invalid Blocks : 0
Heartbeat CPU 7 instructions: 100000000 cycles: 94247014 heartbeat IPC: 1.06013 cumulative IPC: 1.06104 (Simulation time: 23 hr 43 min 56 sec) 
 Total Blocks : 262144 Invalid Blocks : 0
Heartbeat CPU 3 instructions: 110000000 cycles: 103555239 heartbeat IPC: 1.07354 cumulative IPC: 1.06223 (Simulation time: 24 hr 4 min 37 sec) 
 Total Blocks : 262144 Invalid Blocks : 0
Heartbeat CPU 4 instructions: 110000000 cycles: 103556404 heartbeat IPC: 1.07353 cumulative IPC: 1.06222 (Simulation time: 24 hr 4 min 37 sec) 
 Total Blocks : 262144 Invalid Blocks : 0
Heartbeat CPU 0 instructions: 110000000 cycles: 103557061 heartbeat IPC: 1.07351 cumulative IPC: 1.06222 (Simulation time: 24 hr 4 min 37 sec) 
 Total Blocks : 262144 Invalid Blocks : 0
Heartbeat CPU 1 instructions: 110000000 cycles: 103557323 heartbeat IPC: 1.07351 cumulative IPC: 1.06221 (Simulation time: 24 hr 4 min 37 sec) 
 Total Blocks : 262144 Invalid Blocks : 0
Heartbeat CPU 5 instructions: 110000000 cycles: 103557600 heartbeat IPC: 1.07351 cumulative IPC: 1.06221 (Simulation time: 24 hr 4 min 37 sec) 
 Total Blocks : 262144 Invalid Blocks : 0
Heartbeat CPU 2 instructions: 110000000 cycles: 103557972 heartbeat IPC: 1.07349 cumulative IPC: 1.06221 (Simulation time: 24 hr 4 min 37 sec) 
 Total Blocks : 262144 Invalid Blocks : 0
Heartbeat CPU 6 instructions: 110000000 cycles: 103558740 heartbeat IPC: 1.07349 cumulative IPC: 1.0622 (Simulation time: 24 hr 4 min 37 sec) 
 Total Blocks : 262144 Invalid Blocks : 0
Heartbeat CPU 7 instructions: 110000000 cycles: 103562865 heartbeat IPC: 1.07344 cumulative IPC: 1.06216 (Simulation time: 24 hr 4 min 38 sec) 
 Total Blocks : 262144 Invalid Blocks : 0
Heartbeat CPU 3 instructions: 120000000 cycles: 112907759 heartbeat IPC: 1.06923 cumulative IPC: 1.06281 (Simulation time: 24 hr 24 min 25 sec) 
 Total Blocks : 262144 Invalid Blocks : 0
Heartbeat CPU 4 instructions: 120000000 cycles: 112908872 heartbeat IPC: 1.06924 cumulative IPC: 1.0628 (Simulation time: 24 hr 24 min 25 sec) 
 Total Blocks : 262144 Invalid Blocks : 0
Heartbeat CPU 0 instructions: 120000000 cycles: 112909524 heartbeat IPC: 1.06924 cumulative IPC: 1.0628 (Simulation time: 24 hr 24 min 25 sec) 
 Total Blocks : 262144 Invalid Blocks : 0
Heartbeat CPU 1 instructions: 120000000 cycles: 112909798 heartbeat IPC: 1.06924 cumulative IPC: 1.0628 (Simulation time: 24 hr 24 min 25 sec) 
 Total Blocks : 262144 Invalid Blocks : 0
Heartbeat CPU 5 instructions: 120000000 cycles: 112909978 heartbeat IPC: 1.06925 cumulative IPC: 1.06279 (Simulation time: 24 hr 24 min 26 sec) 
 Total Blocks : 262144 Invalid Blocks : 0
Heartbeat CPU 2 instructions: 120000000 cycles: 112910262 heartbeat IPC: 1.06926 cumulative IPC: 1.06279 (Simulation time: 24 hr 24 min 26 sec) 
 Total Blocks : 262144 Invalid Blocks : 0
Heartbeat CPU 6 instructions: 120000000 cycles: 112911262 heartbeat IPC: 1.06923 cumulative IPC: 1.06278 (Simulation time: 24 hr 24 min 26 sec) 
 Total Blocks : 262144 Invalid Blocks : 0
Heartbeat CPU 7 instructions: 120000000 cycles: 112915703 heartbeat IPC: 1.06919 cumulative IPC: 1.06274 (Simulation time: 24 hr 24 min 26 sec) 
 Total Blocks : 262144 Invalid Blocks : 0
Heartbeat CPU 3 instructions: 130000000 cycles: 122211425 heartbeat IPC: 1.07485 cumulative IPC: 1.06373 (Simulation time: 24 hr 43 min 12 sec) 
 Total Blocks : 262144 Invalid Blocks : 0
Heartbeat CPU 4 instructions: 130000000 cycles: 122212880 heartbeat IPC: 1.07481 cumulative IPC: 1.06372 (Simulation time: 24 hr 43 min 12 sec) 
 Total Blocks : 262144 Invalid Blocks : 0
Heartbeat CPU 0 instructions: 130000000 cycles: 122213030 heartbeat IPC: 1.07486 cumulative IPC: 1.06372 (Simulation time: 24 hr 43 min 12 sec) 
 Total Blocks : 262144 Invalid Blocks : 0
Heartbeat CPU 1 instructions: 130000000 cycles: 122213543 heartbeat IPC: 1.07484 cumulative IPC: 1.06371 (Simulation time: 24 hr 43 min 12 sec) 
 Total Blocks : 262144 Invalid Blocks : 0
Heartbeat CPU 5 instructions: 130000000 cycles: 122213786 heartbeat IPC: 1.07483 cumulative IPC: 1.06371 (Simulation time: 24 hr 43 min 12 sec) 
 Total Blocks : 262144 Invalid Blocks : 0
Heartbeat CPU 2 instructions: 130000000 cycles: 122214256 heartbeat IPC: 1.07481 cumulative IPC: 1.06371 (Simulation time: 24 hr 43 min 12 sec) 
 Total Blocks : 262144 Invalid Blocks : 0
Heartbeat CPU 6 instructions: 130000000 cycles: 122214950 heartbeat IPC: 1.07484 cumulative IPC: 1.0637 (Simulation time: 24 hr 43 min 12 sec) 
 Total Blocks : 262144 Invalid Blocks : 0
Heartbeat CPU 7 instructions: 130000000 cycles: 122219956 heartbeat IPC: 1.07478 cumulative IPC: 1.06366 (Simulation time: 24 hr 43 min 12 sec) 
 Total Blocks : 262144 Invalid Blocks : 0
Heartbeat CPU 3 instructions: 140000000 cycles: 131636227 heartbeat IPC: 1.06103 cumulative IPC: 1.06354 (Simulation time: 25 hr 1 min 29 sec) 
 Total Blocks : 262144 Invalid Blocks : 0
Heartbeat CPU 0 instructions: 140000000 cycles: 131637803 heartbeat IPC: 1.06103 cumulative IPC: 1.06352 (Simulation time: 25 hr 1 min 29 sec) 
 Total Blocks : 262144 Invalid Blocks : 0
Heartbeat CPU 4 instructions: 140000000 cycles: 131637858 heartbeat IPC: 1.06101 cumulative IPC: 1.06352 (Simulation time: 25 hr 1 min 29 sec) 
 Total Blocks : 262144 Invalid Blocks : 0
Heartbeat CPU 5 instructions: 140000000 cycles: 131638704 heartbeat IPC: 1.06102 cumulative IPC: 1.06352 (Simulation time: 25 hr 1 min 30 sec) 
 Total Blocks : 262144 Invalid Blocks : 0
Heartbeat CPU 1 instructions: 140000000 cycles: 131639080 heartbeat IPC: 1.06095 cumulative IPC: 1.06351 (Simulation time: 25 hr 1 min 30 sec) 
 Total Blocks : 262144 Invalid Blocks : 0
Heartbeat CPU 2 instructions: 140000000 cycles: 131639131 heartbeat IPC: 1.06102 cumulative IPC: 1.06351 (Simulation time: 25 hr 1 min 30 sec) 
 Total Blocks : 262144 Invalid Blocks : 0
Heartbeat CPU 6 instructions: 140000000 cycles: 131640214 heartbeat IPC: 1.06098 cumulative IPC: 1.0635 (Simulation time: 25 hr 1 min 30 sec) 
 Total Blocks : 262144 Invalid Blocks : 0
Heartbeat CPU 7 instructions: 140000000 cycles: 131645392 heartbeat IPC: 1.06096 cumulative IPC: 1.06346 (Simulation time: 25 hr 1 min 30 sec) 
 Total Blocks : 262144 Invalid Blocks : 0
Heartbeat CPU 3 instructions: 150000002 cycles: 141010378 heartbeat IPC: 1.06676 cumulative IPC: 1.06375 (Simulation time: 25 hr 20 min 41 sec) 
 Total Blocks : 262144 Invalid Blocks : 0
Heartbeat CPU 0 instructions: 150000002 cycles: 141012304 heartbeat IPC: 1.06672 cumulative IPC: 1.06374 (Simulation time: 25 hr 20 min 41 sec) 
 Total Blocks : 262144 Invalid Blocks : 0
Heartbeat CPU 4 instructions: 150000002 cycles: 141012559 heartbeat IPC: 1.0667 cumulative IPC: 1.06374 (Simulation time: 25 hr 20 min 41 sec) 
 Total Blocks : 262144 Invalid Blocks : 0
Heartbeat CPU 5 instructions: 150000002 cycles: 141013562 heartbeat IPC: 1.06668 cumulative IPC: 1.06373 (Simulation time: 25 hr 20 min 41 sec) 
 Total Blocks : 262144 Invalid Blocks : 0
Heartbeat CPU 1 instructions: 150000002 cycles: 141013803 heartbeat IPC: 1.0667 cumulative IPC: 1.06373 (Simulation time: 25 hr 20 min 41 sec) 
 Total Blocks : 262144 Invalid Blocks : 0
Heartbeat CPU 2 instructions: 150000002 cycles: 141013820 heartbeat IPC: 1.0667 cumulative IPC: 1.06373 (Simulation time: 25 hr 20 min 41 sec) 
 Total Blocks : 262144 Invalid Blocks : 0
Heartbeat CPU 6 instructions: 150000002 cycles: 141014971 heartbeat IPC: 1.06669 cumulative IPC: 1.06372 (Simulation time: 25 hr 20 min 41 sec) 
 Total Blocks : 262144 Invalid Blocks : 0
Heartbeat CPU 7 instructions: 150000002 cycles: 141020188 heartbeat IPC: 1.06669 cumulative IPC: 1.06368 (Simulation time: 25 hr 20 min 43 sec) 
 Total Blocks : 262144 Invalid Blocks : 0
Heartbeat CPU 3 instructions: 160000000 cycles: 150420022 heartbeat IPC: 1.06274 cumulative IPC: 1.06369 (Simulation time: 25 hr 40 min 51 sec) 
 Total Blocks : 262144 Invalid Blocks : 0
Heartbeat CPU 0 instructions: 160000000 cycles: 150421883 heartbeat IPC: 1.06275 cumulative IPC: 1.06368 (Simulation time: 25 hr 40 min 53 sec) 
 Total Blocks : 262144 Invalid Blocks : 0
Heartbeat CPU 4 instructions: 160000000 cycles: 150422096 heartbeat IPC: 1.06275 cumulative IPC: 1.06367 (Simulation time: 25 hr 40 min 53 sec) 
 Total Blocks : 262144 Invalid Blocks : 0
Heartbeat CPU 5 instructions: 160000000 cycles: 150423139 heartbeat IPC: 1.06275 cumulative IPC: 1.06367 (Simulation time: 25 hr 40 min 55 sec) 
 Total Blocks : 262144 Invalid Blocks : 0
Heartbeat CPU 1 instructions: 160000000 cycles: 150423491 heartbeat IPC: 1.06273 cumulative IPC: 1.06366 (Simulation time: 25 hr 40 min 55 sec) 
 Total Blocks : 262144 Invalid Blocks : 0
Heartbeat CPU 2 instructions: 160000000 cycles: 150423592 heartbeat IPC: 1.06272 cumulative IPC: 1.06366 (Simulation time: 25 hr 40 min 55 sec) 
 Total Blocks : 262144 Invalid Blocks : 0
Heartbeat CPU 6 instructions: 160000000 cycles: 150424828 heartbeat IPC: 1.06272 cumulative IPC: 1.06365 (Simulation time: 25 hr 40 min 57 sec) 
 Total Blocks : 262144 Invalid Blocks : 0
Heartbeat CPU 7 instructions: 160000000 cycles: 150430333 heartbeat IPC: 1.06268 cumulative IPC: 1.06362 (Simulation time: 25 hr 40 min 59 sec) 
 Total Blocks : 262144 Invalid Blocks : 0
Heartbeat CPU 3 instructions: 170000002 cycles: 159808205 heartbeat IPC: 1.06517 cumulative IPC: 1.06378 (Simulation time: 25 hr 58 min 44 sec) 
 Total Blocks : 262144 Invalid Blocks : 0
Heartbeat CPU 0 instructions: 170000002 cycles: 159810721 heartbeat IPC: 1.06509 cumulative IPC: 1.06376 (Simulation time: 25 hr 58 min 44 sec) 
 Total Blocks : 262144 Invalid Blocks : 0
Heartbeat CPU 4 instructions: 170000002 cycles: 159810726 heartbeat IPC: 1.06512 cumulative IPC: 1.06376 (Simulation time: 25 hr 58 min 44 sec) 
 Total Blocks : 262144 Invalid Blocks : 0
Heartbeat CPU 5 instructions: 170000002 cycles: 159811715 heartbeat IPC: 1.06512 cumulative IPC: 1.06375 (Simulation time: 25 hr 58 min 44 sec) 
 Total Blocks : 262144 Invalid Blocks : 0
Heartbeat CPU 1 instructions: 170000002 cycles: 159811998 heartbeat IPC: 1.06513 cumulative IPC: 1.06375 (Simulation time: 25 hr 58 min 44 sec) 
 Total Blocks : 262144 Invalid Blocks : 0
Heartbeat CPU 2 instructions: 170000002 cycles: 159812032 heartbeat IPC: 1.06514 cumulative IPC: 1.06375 (Simulation time: 25 hr 58 min 44 sec) 
 Total Blocks : 262144 Invalid Blocks : 0
Heartbeat CPU 6 instructions: 170000002 cycles: 159813743 heartbeat IPC: 1.06509 cumulative IPC: 1.06374 (Simulation time: 25 hr 58 min 45 sec) 
 Total Blocks : 262144 Invalid Blocks : 0
Heartbeat CPU 7 instructions: 170000002 cycles: 159819318 heartbeat IPC: 1.06508 cumulative IPC: 1.0637 (Simulation time: 25 hr 58 min 45 sec) 
 Total Blocks : 262144 Invalid Blocks : 0
Heartbeat CPU 3 instructions: 180000000 cycles: 169132405 heartbeat IPC: 1.07248 cumulative IPC: 1.06425 (Simulation time: 26 hr 18 min 12 sec) 
 Total Blocks : 262144 Invalid Blocks : 0
Heartbeat CPU 0 instructions: 180000000 cycles: 169135139 heartbeat IPC: 1.07245 cumulative IPC: 1.06424 (Simulation time: 26 hr 18 min 12 sec) 
 Total Blocks : 262144 Invalid Blocks : 0
Heartbeat CPU 4 instructions: 180000000 cycles: 169135216 heartbeat IPC: 1.07244 cumulative IPC: 1.06424 (Simulation time: 26 hr 18 min 12 sec) 
 Total Blocks : 262144 Invalid Blocks : 0
Heartbeat CPU 5 instructions: 180000000 cycles: 169136431 heartbeat IPC: 1.07242 cumulative IPC: 1.06423 (Simulation time: 26 hr 18 min 12 sec) 
 Total Blocks : 262144 Invalid Blocks : 0
Heartbeat CPU 1 instructions: 180000000 cycles: 169136617 heartbeat IPC: 1.07243 cumulative IPC: 1.06423 (Simulation time: 26 hr 18 min 12 sec) 
 Total Blocks : 262144 Invalid Blocks : 0
Heartbeat CPU 2 instructions: 180000000 cycles: 169136677 heartbeat IPC: 1.07243 cumulative IPC: 1.06423 (Simulation time: 26 hr 18 min 12 sec) 
 Total Blocks : 262144 Invalid Blocks : 0
Heartbeat CPU 6 instructions: 180000000 cycles: 169138510 heartbeat IPC: 1.07241 cumulative IPC: 1.06422 (Simulation time: 26 hr 18 min 12 sec) 
 Total Blocks : 262144 Invalid Blocks : 0
Heartbeat CPU 7 instructions: 180000000 cycles: 169143917 heartbeat IPC: 1.07243 cumulative IPC: 1.06418 (Simulation time: 26 hr 18 min 12 sec) 
 Total Blocks : 262144 Invalid Blocks : 0
Heartbeat CPU 3 instructions: 190000003 cycles: 178446114 heartbeat IPC: 1.07369 cumulative IPC: 1.06475 (Simulation time: 27 hr 16 min 54 sec) 
 Total Blocks : 262144 Invalid Blocks : 0
Heartbeat CPU 0 instructions: 190000003 cycles: 178449090 heartbeat IPC: 1.07366 cumulative IPC: 1.06473 (Simulation time: 27 hr 16 min 55 sec) 
 Total Blocks : 262144 Invalid Blocks : 0
Heartbeat CPU 4 instructions: 190000003 cycles: 178449196 heartbeat IPC: 1.07366 cumulative IPC: 1.06473 (Simulation time: 27 hr 16 min 55 sec) 
 Total Blocks : 262144 Invalid Blocks : 0
Heartbeat CPU 1 instructions: 190000003 cycles: 178450405 heartbeat IPC: 1.07368 cumulative IPC: 1.06472 (Simulation time: 27 hr 16 min 55 sec) 
 Total Blocks : 262144 Invalid Blocks : 0
Heartbeat CPU 5 instructions: 190000003 cycles: 178450448 heartbeat IPC: 1.07365 cumulative IPC: 1.06472 (Simulation time: 27 hr 16 min 55 sec) 
 Total Blocks : 262144 Invalid Blocks : 0
Heartbeat CPU 2 instructions: 190000003 cycles: 178450561 heartbeat IPC: 1.07367 cumulative IPC: 1.06472 (Simulation time: 27 hr 16 min 55 sec) 
 Total Blocks : 262144 Invalid Blocks : 0
Heartbeat CPU 6 instructions: 190000003 cycles: 178452521 heartbeat IPC: 1.07365 cumulative IPC: 1.06471 (Simulation time: 27 hr 16 min 55 sec) 
 Total Blocks : 262144 Invalid Blocks : 0
Heartbeat CPU 7 instructions: 190000003 cycles: 178458563 heartbeat IPC: 1.07358 cumulative IPC: 1.06467 (Simulation time: 27 hr 16 min 55 sec) 
 Total Blocks : 262144 Invalid Blocks : 0
Heartbeat CPU 3 instructions: 200000001 cycles: 187759682 heartbeat IPC: 1.0737 cumulative IPC: 1.06519 (Simulation time: 27 hr 40 min 28 sec) 
 Total Blocks : 262144 Invalid Blocks : 0
Heartbeat CPU 0 instructions: 200000001 cycles: 187762776 heartbeat IPC: 1.07369 cumulative IPC: 1.06517 (Simulation time: 27 hr 40 min 29 sec) 
 Total Blocks : 262144 Invalid Blocks : 0
Heartbeat CPU 4 instructions: 200000001 cycles: 187763161 heartbeat IPC: 1.07366 cumulative IPC: 1.06517 (Simulation time: 27 hr 40 min 29 sec) 
 Total Blocks : 262144 Invalid Blocks : 0
Heartbeat CPU 2 instructions: 200000001 cycles: 187763894 heartbeat IPC: 1.07373 cumulative IPC: 1.06517 (Simulation time: 27 hr 40 min 29 sec) 
 Total Blocks : 262144 Invalid Blocks : 0
Heartbeat CPU 5 instructions: 200000001 cycles: 187764262 heartbeat IPC: 1.07367 cumulative IPC: 1.06517 (Simulation time: 27 hr 40 min 29 sec) 
 Total Blocks : 262144 Invalid Blocks : 0
Heartbeat CPU 1 instructions: 200000001 cycles: 187764371 heartbeat IPC: 1.07366 cumulative IPC: 1.06516 (Simulation time: 27 hr 40 min 29 sec) 
 Total Blocks : 262144 Invalid Blocks : 0
Heartbeat CPU 6 instructions: 200000001 cycles: 187766456 heartbeat IPC: 1.07366 cumulative IPC: 1.06515 (Simulation time: 27 hr 40 min 29 sec) 
 Total Blocks : 262144 Invalid Blocks : 0
Heartbeat CPU 7 instructions: 200000001 cycles: 187772713 heartbeat IPC: 1.07364 cumulative IPC: 1.06512 (Simulation time: 27 hr 40 min 30 sec) 
 Total Blocks : 262144 Invalid Blocks : 0

Warmup complete CPU 0 instructions: 200010178 cycles: 187772713 (Simulation time: 27 hr 40 min 30 sec) 
Warmup complete CPU 1 instructions: 200008669 cycles: 187772713 (Simulation time: 27 hr 40 min 30 sec) 
Warmup complete CPU 2 instructions: 200009288 cycles: 187772713 (Simulation time: 27 hr 40 min 30 sec) 
Warmup complete CPU 3 instructions: 200013342 cycles: 187772713 (Simulation time: 27 hr 40 min 30 sec) 
Warmup complete CPU 4 instructions: 200009801 cycles: 187772713 (Simulation time: 27 hr 40 min 30 sec) 
Warmup complete CPU 5 instructions: 200008798 cycles: 187772713 (Simulation time: 27 hr 40 min 30 sec) 
Warmup complete CPU 6 instructions: 200006448 cycles: 187772713 (Simulation time: 27 hr 40 min 30 sec) 
Warmup complete CPU 7 instructions: 200000001 cycles: 187772713 (Simulation time: 27 hr 40 min 30 sec) 

Heartbeat CPU 3 instructions: 210000003 cycles: 241413339 heartbeat IPC: 0.186381 cumulative IPC: 0.186177 (Simulation time: 28 hr 25 min 18 sec) 
 Total Blocks : 262144 Invalid Blocks : 0
Heartbeat CPU 0 instructions: 210000003 cycles: 241709812 heartbeat IPC: 0.185367 cumulative IPC: 0.185213 (Simulation time: 28 hr 25 min 32 sec) 
 Total Blocks : 262144 Invalid Blocks : 0
Heartbeat CPU 4 instructions: 210000003 cycles: 241780456 heartbeat IPC: 0.185126 cumulative IPC: 0.184977 (Simulation time: 28 hr 25 min 36 sec) 
 Total Blocks : 262144 Invalid Blocks : 0
Heartbeat CPU 2 instructions: 210000003 cycles: 241845102 heartbeat IPC: 0.184907 cumulative IPC: 0.184766 (Simulation time: 28 hr 25 min 39 sec) 
 Total Blocks : 262144 Invalid Blocks : 0
Heartbeat CPU 6 instructions: 210000003 cycles: 241897085 heartbeat IPC: 0.184738 cumulative IPC: 0.184641 (Simulation time: 28 hr 25 min 42 sec) 
 Total Blocks : 262144 Invalid Blocks : 0
Heartbeat CPU 1 instructions: 210000003 cycles: 241898844 heartbeat IPC: 0.184725 cumulative IPC: 0.184594 (Simulation time: 28 hr 25 min 42 sec) 
 Total Blocks : 262144 Invalid Blocks : 0
Heartbeat CPU 5 instructions: 210000003 cycles: 241901274 heartbeat IPC: 0.184717 cumulative IPC: 0.184583 (Simulation time: 28 hr 25 min 42 sec) 
 Total Blocks : 262144 Invalid Blocks : 0
Heartbeat CPU 7 instructions: 210000003 cycles: 241929155 heartbeat IPC: 0.18465 cumulative IPC: 0.18465 (Simulation time: 28 hr 25 min 44 sec) 
 Total Blocks : 262144 Invalid Blocks : 0
Heartbeat CPU 3 instructions: 220000000 cycles: 294489125 heartbeat IPC: 0.18841 cumulative IPC: 0.187288 (Simulation time: 29 hr 1 min 30 sec) 
 Total Blocks : 262144 Invalid Blocks : 0
Heartbeat CPU 0 instructions: 220000000 cycles: 294749940 heartbeat IPC: 0.188536 cumulative IPC: 0.186861 (Simulation time: 29 hr 1 min 38 sec) 
 Total Blocks : 262144 Invalid Blocks : 0
Heartbeat CPU 4 instructions: 220000000 cycles: 294818817 heartbeat IPC: 0.188543 cumulative IPC: 0.186744 (Simulation time: 29 hr 1 min 41 sec) 
 Total Blocks : 262144 Invalid Blocks : 0
Heartbeat CPU 2 instructions: 220000000 cycles: 294983032 heartbeat IPC: 0.188189 cumulative IPC: 0.186463 (Simulation time: 29 hr 1 min 46 sec) 
 Total Blocks : 262144 Invalid Blocks : 0
Heartbeat CPU 5 instructions: 220000000 cycles: 295074697 heartbeat IPC: 0.188064 cumulative IPC: 0.186308 (Simulation time: 29 hr 1 min 49 sec) 
 Total Blocks : 262144 Invalid Blocks : 0
Heartbeat CPU 1 instructions: 220000000 cycles: 295226911 heartbeat IPC: 0.187518 cumulative IPC: 0.186045 (Simulation time: 29 hr 1 min 54 sec) 
 Total Blocks : 262144 Invalid Blocks : 0
Heartbeat CPU 6 instructions: 220000000 cycles: 295255416 heartbeat IPC: 0.187412 cumulative IPC: 0.186016 (Simulation time: 29 hr 1 min 55 sec) 
 Total Blocks : 262144 Invalid Blocks : 0
Heartbeat CPU 7 instructions: 220000000 cycles: 295267442 heartbeat IPC: 0.187483 cumulative IPC: 0.186056 (Simulation time: 29 hr 1 min 56 sec) 
 Total Blocks : 262144 Invalid Blocks : 0
Heartbeat CPU 3 instructions: 230000000 cycles: 347883541 heartbeat IPC: 0.187285 cumulative IPC: 0.187287 (Simulation time: 29 hr 29 min 45 sec) 
 Total Blocks : 262144 Invalid Blocks : 0
Heartbeat CPU 0 instructions: 230000000 cycles: 348125855 heartbeat IPC: 0.18735 cumulative IPC: 0.187024 (Simulation time: 29 hr 29 min 53 sec) 
 Total Blocks : 262144 Invalid Blocks : 0
Heartbeat CPU 4 instructions: 230000000 cycles: 348204305 heartbeat IPC: 0.187317 cumulative IPC: 0.186935 (Simulation time: 29 hr 29 min 56 sec) 
 Total Blocks : 262144 Invalid Blocks : 0
Heartbeat CPU 2 instructions: 230000000 cycles: 348306583 heartbeat IPC: 0.187534 cumulative IPC: 0.186819 (Simulation time: 29 hr 29 min 59 sec) 
 Total Blocks : 262144 Invalid Blocks : 0
Heartbeat CPU 5 instructions: 230000000 cycles: 348338272 heartbeat IPC: 0.187746 cumulative IPC: 0.186785 (Simulation time: 29 hr 30 min 0 sec) 
 Total Blocks : 262144 Invalid Blocks : 0
Heartbeat CPU 6 instructions: 230000000 cycles: 348766314 heartbeat IPC: 0.186878 cumulative IPC: 0.186303 (Simulation time: 29 hr 30 min 17 sec) 
 Total Blocks : 262144 Invalid Blocks : 0
Heartbeat CPU 1 instructions: 230000000 cycles: 348770283 heartbeat IPC: 0.186764 cumulative IPC: 0.186284 (Simulation time: 29 hr 30 min 17 sec) 
 Total Blocks : 262144 Invalid Blocks : 0
Heartbeat CPU 7 instructions: 230000000 cycles: 348786556 heartbeat IPC: 0.186849 cumulative IPC: 0.186319 (Simulation time: 29 hr 30 min 18 sec) 
 Total Blocks : 262144 Invalid Blocks : 0
Heartbeat CPU 3 instructions: 240000000 cycles: 400920990 heartbeat IPC: 0.188546 cumulative IPC: 0.1876 (Simulation time: 29 hr 58 min 21 sec) 
 Total Blocks : 262144 Invalid Blocks : 0
Heartbeat CPU 0 instructions: 240000000 cycles: 401161094 heartbeat IPC: 0.188554 cumulative IPC: 0.187404 (Simulation time: 29 hr 58 min 27 sec) 
 Total Blocks : 262144 Invalid Blocks : 0
Heartbeat CPU 4 instructions: 240000000 cycles: 401420632 heartbeat IPC: 0.187912 cumulative IPC: 0.187178 (Simulation time: 29 hr 58 min 33 sec) 
 Total Blocks : 262144 Invalid Blocks : 0
Heartbeat CPU 2 instructions: 240000000 cycles: 401457090 heartbeat IPC: 0.188145 cumulative IPC: 0.187149 (Simulation time: 29 hr 58 min 35 sec) 
 Total Blocks : 262144 Invalid Blocks : 0
Heartbeat CPU 5 instructions: 240000000 cycles: 401514101 heartbeat IPC: 0.188055 cumulative IPC: 0.187101 (Simulation time: 29 hr 58 min 37 sec) 
 Total Blocks : 262144 Invalid Blocks : 0
Heartbeat CPU 1 instructions: 240000000 cycles: 402094694 heartbeat IPC: 0.187531 cumulative IPC: 0.186595 (Simulation time: 29 hr 58 min 53 sec) 
 Total Blocks : 262144 Invalid Blocks : 0
Heartbeat CPU 6 instructions: 240000000 cycles: 402112293 heartbeat IPC: 0.187456 cumulative IPC: 0.18659 (Simulation time: 29 hr 58 min 53 sec) 
 Total Blocks : 262144 Invalid Blocks : 0
Heartbeat CPU 7 instructions: 240000000 cycles: 402132973 heartbeat IPC: 0.187454 cumulative IPC: 0.186602 (Simulation time: 29 hr 58 min 54 sec) 
 Total Blocks : 262144 Invalid Blocks : 0
Heartbeat CPU 3 instructions: 250000001 cycles: 452452281 heartbeat IPC: 0.194057 cumulative IPC: 0.188857 (Simulation time: 30 hr 25 min 54 sec) 
 Total Blocks : 262144 Invalid Blocks : 0
Heartbeat CPU 0 instructions: 250000001 cycles: 452693786 heartbeat IPC: 0.194052 cumulative IPC: 0.188697 (Simulation time: 30 hr 26 min 1 sec) 
 Total Blocks : 262144 Invalid Blocks : 0
Heartbeat CPU 4 instructions: 250000001 cycles: 452980350 heartbeat IPC: 0.19395 cumulative IPC: 0.188495 (Simulation time: 30 hr 26 min 11 sec) 
 Total Blocks : 262144 Invalid Blocks : 0
Heartbeat CPU 5 instructions: 250000001 cycles: 453071330 heartbeat IPC: 0.193959 cumulative IPC: 0.188434 (Simulation time: 30 hr 26 min 14 sec) 
 Total Blocks : 262144 Invalid Blocks : 0
Heartbeat CPU 2 instructions: 250000001 cycles: 453094380 heartbeat IPC: 0.193659 cumulative IPC: 0.188415 (Simulation time: 30 hr 26 min 14 sec) 
 Total Blocks : 262144 Invalid Blocks : 0
Heartbeat CPU 6 instructions: 250000001 cycles: 453846333 heartbeat IPC: 0.193296 cumulative IPC: 0.187894 (Simulation time: 30 hr 26 min 37 sec) 
 Total Blocks : 262144 Invalid Blocks : 0
Heartbeat CPU 1 instructions: 250000001 cycles: 453849320 heartbeat IPC: 0.193219 cumulative IPC: 0.187883 (Simulation time: 30 hr 26 min 37 sec) 
 Total Blocks : 262144 Invalid Blocks : 0
Heartbeat CPU 7 instructions: 250000001 cycles: 453866397 heartbeat IPC: 0.193299 cumulative IPC: 0.187904 (Simulation time: 30 hr 26 min 38 sec) 
 Total Blocks : 262144 Invalid Blocks : 0
Heartbeat CPU 3 instructions: 260000000 cycles: 504171637 heartbeat IPC: 0.193351 cumulative IPC: 0.189592 (Simulation time: 30 hr 53 min 25 sec) 
 Total Blocks : 262144 Invalid Blocks : 0
Heartbeat CPU 0 instructions: 260000000 cycles: 504382753 heartbeat IPC: 0.193465 cumulative IPC: 0.189475 (Simulation time: 30 hr 53 min 34 sec) 
 Total Blocks : 262144 Invalid Blocks : 0
Heartbeat CPU 4 instructions: 260000000 cycles: 504656035 heartbeat IPC: 0.193515 cumulative IPC: 0.189313 (Simulation time: 30 hr 53 min 43 sec) 
 Total Blocks : 262144 Invalid Blocks : 0
Heartbeat CPU 5 instructions: 260000000 cycles: 504924158 heartbeat IPC: 0.192853 cumulative IPC: 0.189156 (Simulation time: 30 hr 53 min 52 sec) 
 Total Blocks : 262144 Invalid Blocks : 0
Heartbeat CPU 2 instructions: 260000000 cycles: 504983409 heartbeat IPC: 0.192719 cumulative IPC: 0.189119 (Simulation time: 30 hr 53 min 55 sec) 
 Total Blocks : 262144 Invalid Blocks : 0
Heartbeat CPU 7 instructions: 260000000 cycles: 505865198 heartbeat IPC: 0.192312 cumulative IPC: 0.188624 (Simulation time: 30 hr 54 min 33 sec) 
 Total Blocks : 262144 Invalid Blocks : 0
Heartbeat CPU 1 instructions: 260000000 cycles: 505894599 heartbeat IPC: 0.19214 cumulative IPC: 0.18858 (Simulation time: 30 hr 54 min 33 sec) 
 Total Blocks : 262144 Invalid Blocks : 0
Heartbeat CPU 6 instructions: 260000000 cycles: 505898258 heartbeat IPC: 0.192116 cumulative IPC: 0.188585 (Simulation time: 30 hr 54 min 33 sec) 
 Total Blocks : 262144 Invalid Blocks : 0
Heartbeat CPU 3 instructions: 270000002 cycles: 557230255 heartbeat IPC: 0.188471 cumulative IPC: 0.189431 (Simulation time: 31 hr 21 min 11 sec) 
 Total Blocks : 262144 Invalid Blocks : 0
Heartbeat CPU 0 instructions: 270000002 cycles: 557382787 heartbeat IPC: 0.188679 cumulative IPC: 0.189361 (Simulation time: 31 hr 21 min 17 sec) 
 Total Blocks : 262144 Invalid Blocks : 0
Heartbeat CPU 4 instructions: 270000002 cycles: 557690122 heartbeat IPC: 0.188558 cumulative IPC: 0.189205 (Simulation time: 31 hr 21 min 28 sec) 
 Total Blocks : 262144 Invalid Blocks : 0
Heartbeat CPU 2 instructions: 270000002 cycles: 558147993 heartbeat IPC: 0.188095 cumulative IPC: 0.188972 (Simulation time: 31 hr 21 min 50 sec) 
 Total Blocks : 262144 Invalid Blocks : 0
Heartbeat CPU 5 instructions: 270000002 cycles: 558165663 heartbeat IPC: 0.187823 cumulative IPC: 0.188965 (Simulation time: 31 hr 21 min 51 sec) 
 Total Blocks : 262144 Invalid Blocks : 0
Heartbeat CPU 7 instructions: 270000002 cycles: 559033094 heartbeat IPC: 0.188083 cumulative IPC: 0.188547 (Simulation time: 31 hr 22 min 42 sec) 
 Total Blocks : 262144 Invalid Blocks : 0
Heartbeat CPU 1 instructions: 270000002 cycles: 559157705 heartbeat IPC: 0.187747 cumulative IPC: 0.18846 (Simulation time: 31 hr 22 min 52 sec) 
 Total Blocks : 262144 Invalid Blocks : 0
Heartbeat CPU 6 instructions: 270000002 cycles: 559168300 heartbeat IPC: 0.187723 cumulative IPC: 0.188461 (Simulation time: 31 hr 22 min 53 sec) 
 Total Blocks : 262144 Invalid Blocks : 0
Heartbeat CPU 3 instructions: 280000000 cycles: 611506366 heartbeat IPC: 0.184243 cumulative IPC: 0.188766 (Simulation time: 31 hr 55 min 39 sec) 
 Total Blocks : 262144 Invalid Blocks : 0
Heartbeat CPU 0 instructions: 280000000 cycles: 611712512 heartbeat IPC: 0.184061 cumulative IPC: 0.188682 (Simulation time: 31 hr 55 min 45 sec) 
 Total Blocks : 262144 Invalid Blocks : 0
Heartbeat CPU 4 instructions: 280000000 cycles: 611988838 heartbeat IPC: 0.184166 cumulative IPC: 0.18856 (Simulation time: 31 hr 55 min 54 sec) 
 Total Blocks : 262144 Invalid Blocks : 0
Heartbeat CPU 5 instructions: 280000000 cycles: 612569814 heartbeat IPC: 0.183809 cumulative IPC: 0.188304 (Simulation time: 31 hr 56 min 14 sec) 
 Total Blocks : 262144 Invalid Blocks : 0
Heartbeat CPU 2 instructions: 280000000 cycles: 612600133 heartbeat IPC: 0.183647 cumulative IPC: 0.18829 (Simulation time: 31 hr 56 min 16 sec) 
 Total Blocks : 262144 Invalid Blocks : 0
Heartbeat CPU 7 instructions: 280000000 cycles: 613431121 heartbeat IPC: 0.18383 cumulative IPC: 0.187944 (Simulation time: 31 hr 56 min 44 sec) 
 Total Blocks : 262144 Invalid Blocks : 0
Heartbeat CPU 1 instructions: 280000000 cycles: 613614380 heartbeat IPC: 0.183632 cumulative IPC: 0.187843 (Simulation time: 31 hr 56 min 51 sec) 
 Total Blocks : 262144 Invalid Blocks : 0
Heartbeat CPU 6 instructions: 280000000 cycles: 613615940 heartbeat IPC: 0.183663 cumulative IPC: 0.187847 (Simulation time: 31 hr 56 min 51 sec) 
 Total Blocks : 262144 Invalid Blocks : 0
Heartbeat CPU 3 instructions: 290000001 cycles: 664963781 heartbeat IPC: 0.187065 cumulative IPC: 0.188576 (Simulation time: 32 hr 23 min 14 sec) 
 Total Blocks : 262144 Invalid Blocks : 0
Heartbeat CPU 0 instructions: 290000001 cycles: 665181766 heartbeat IPC: 0.187023 cumulative IPC: 0.188496 (Simulation time: 32 hr 23 min 20 sec) 
 Total Blocks : 262144 Invalid Blocks : 0
Heartbeat CPU 4 instructions: 290000001 cycles: 665493299 heartbeat IPC: 0.1869 cumulative IPC: 0.188374 (Simulation time: 32 hr 23 min 29 sec) 
 Total Blocks : 262144 Invalid Blocks : 0
Heartbeat CPU 5 instructions: 290000001 cycles: 666181453 heartbeat IPC: 0.186527 cumulative IPC: 0.188105 (Simulation time: 32 hr 23 min 47 sec) 
 Total Blocks : 262144 Invalid Blocks : 0
Heartbeat CPU 2 instructions: 290000001 cycles: 666217581 heartbeat IPC: 0.186506 cumulative IPC: 0.18809 (Simulation time: 32 hr 23 min 48 sec) 
 Total Blocks : 262144 Invalid Blocks : 0
Heartbeat CPU 7 instructions: 290000001 cycles: 667021602 heartbeat IPC: 0.1866 cumulative IPC: 0.187794 (Simulation time: 32 hr 24 min 9 sec) 
 Total Blocks : 262144 Invalid Blocks : 0
Heartbeat CPU 1 instructions: 290000001 cycles: 667233164 heartbeat IPC: 0.186502 cumulative IPC: 0.187693 (Simulation time: 32 hr 24 min 14 sec) 
 Total Blocks : 262144 Invalid Blocks : 0
Heartbeat CPU 6 instructions: 290000001 cycles: 667244378 heartbeat IPC: 0.186468 cumulative IPC: 0.187693 (Simulation time: 32 hr 24 min 15 sec) 
 Total Blocks : 262144 Invalid Blocks : 0
Heartbeat CPU 3 instructions: 300000002 cycles: 717042766 heartbeat IPC: 0.192016 cumulative IPC: 0.188914 (Simulation time: 32 hr 49 min 53 sec) 
 Total Blocks : 262144 Invalid Blocks : 0
Heartbeat CPU 0 instructions: 300000002 cycles: 717265668 heartbeat IPC: 0.191998 cumulative IPC: 0.188841 (Simulation time: 32 hr 49 min 59 sec) 
 Total Blocks : 262144 Invalid Blocks : 0
Heartbeat CPU 4 instructions: 300000002 cycles: 717489136 heartbeat IPC: 0.192323 cumulative IPC: 0.188762 (Simulation time: 32 hr 50 min 5 sec) 
 Total Blocks : 262144 Invalid Blocks : 0
Heartbeat CPU 5 instructions: 300000002 cycles: 718304696 heartbeat IPC: 0.191853 cumulative IPC: 0.188473 (Simulation time: 32 hr 50 min 27 sec) 
 Total Blocks : 262144 Invalid Blocks : 0
Heartbeat CPU 2 instructions: 300000002 cycles: 718339094 heartbeat IPC: 0.191859 cumulative IPC: 0.18846 (Simulation time: 32 hr 50 min 28 sec) 
 Total Blocks : 262144 Invalid Blocks : 0
Heartbeat CPU 7 instructions: 300000002 cycles: 719021893 heartbeat IPC: 0.192307 cumulative IPC: 0.188236 (Simulation time: 32 hr 50 min 47 sec) 
 Total Blocks : 262144 Invalid Blocks : 0
Heartbeat CPU 6 instructions: 300000002 cycles: 719300454 heartbeat IPC: 0.192101 cumulative IPC: 0.188125 (Simulation time: 32 hr 50 min 56 sec) 
 Total Blocks : 262144 Invalid Blocks : 0
Heartbeat CPU 1 instructions: 300000002 cycles: 719301191 heartbeat IPC: 0.192056 cumulative IPC: 0.18812 (Simulation time: 32 hr 50 min 56 sec) 
 Total Blocks : 262144 Invalid Blocks : 0
Heartbeat CPU 3 instructions: 310000000 cycles: 770487728 heartbeat IPC: 0.187108 cumulative IPC: 0.188749 (Simulation time: 33 hr 16 min 12 sec) 
 Total Blocks : 262144 Invalid Blocks : 0
Heartbeat CPU 0 instructions: 310000000 cycles: 770701863 heartbeat IPC: 0.187139 cumulative IPC: 0.188685 (Simulation time: 33 hr 16 min 18 sec) 
 Total Blocks : 262144 Invalid Blocks : 0
Heartbeat CPU 4 instructions: 310000000 cycles: 770967068 heartbeat IPC: 0.186993 cumulative IPC: 0.1886 (Simulation time: 33 hr 16 min 25 sec) 
 Total Blocks : 262144 Invalid Blocks : 0
Heartbeat CPU 2 instructions: 310000000 cycles: 771947290 heartbeat IPC: 0.186539 cumulative IPC: 0.188284 (Simulation time: 33 hr 16 min 49 sec) 
 Total Blocks : 262144 Invalid Blocks : 0
Heartbeat CPU 5 instructions: 310000000 cycles: 771986582 heartbeat IPC: 0.186283 cumulative IPC: 0.188272 (Simulation time: 33 hr 16 min 51 sec) 
 Total Blocks : 262144 Invalid Blocks : 0
Heartbeat CPU 7 instructions: 310000000 cycles: 772623594 heartbeat IPC: 0.186561 cumulative IPC: 0.188082 (Simulation time: 33 hr 17 min 9 sec) 
 Total Blocks : 262144 Invalid Blocks : 0
Heartbeat CPU 1 instructions: 310000000 cycles: 772991216 heartbeat IPC: 0.186254 cumulative IPC: 0.187949 (Simulation time: 33 hr 17 min 19 sec) 
 Total Blocks : 262144 Invalid Blocks : 0
Heartbeat CPU 6 instructions: 310000000 cycles: 773035539 heartbeat IPC: 0.186098 cumulative IPC: 0.187939 (Simulation time: 33 hr 17 min 20 sec) 
 Total Blocks : 262144 Invalid Blocks : 0
Heartbeat CPU 3 instructions: 320000000 cycles: 823438459 heartbeat IPC: 0.188855 cumulative IPC: 0.188757 (Simulation time: 33 hr 42 min 7 sec) 
 Total Blocks : 262144 Invalid Blocks : 0
Heartbeat CPU 0 instructions: 320000000 cycles: 823655488 heartbeat IPC: 0.188844 cumulative IPC: 0.188698 (Simulation time: 33 hr 42 min 13 sec) 
 Total Blocks : 262144 Invalid Blocks : 0
Heartbeat CPU 4 instructions: 320000000 cycles: 823834550 heartbeat IPC: 0.189152 cumulative IPC: 0.188645 (Simulation time: 33 hr 42 min 18 sec) 
 Total Blocks : 262144 Invalid Blocks : 0
Heartbeat CPU 2 instructions: 320000000 cycles: 825011687 heartbeat IPC: 0.18845 cumulative IPC: 0.188298 (Simulation time: 33 hr 42 min 53 sec) 
 Total Blocks : 262144 Invalid Blocks : 0
Heartbeat CPU 5 instructions: 320000000 cycles: 825018133 heartbeat IPC: 0.188567 cumulative IPC: 0.188297 (Simulation time: 33 hr 42 min 53 sec) 
 Total Blocks : 262144 Invalid Blocks : 0
Heartbeat CPU 7 instructions: 320000000 cycles: 825529978 heartbeat IPC: 0.189013 cumulative IPC: 0.188159 (Simulation time: 33 hr 43 min 8 sec) 
 Total Blocks : 262144 Invalid Blocks : 0
Heartbeat CPU 1 instructions: 320000000 cycles: 825833355 heartbeat IPC: 0.189243 cumulative IPC: 0.188056 (Simulation time: 33 hr 43 min 18 sec) 
 Total Blocks : 262144 Invalid Blocks : 0
Heartbeat CPU 6 instructions: 320000000 cycles: 825957972 heartbeat IPC: 0.188956 cumulative IPC: 0.188023 (Simulation time: 33 hr 43 min 22 sec) 
 Total Blocks : 262144 Invalid Blocks : 0
Heartbeat CPU 3 instructions: 330000000 cycles: 876099423 heartbeat IPC: 0.189894 cumulative IPC: 0.188844 (Simulation time: 34 hr 8 min 23 sec) 
 Total Blocks : 262144 Invalid Blocks : 0
Heartbeat CPU 0 instructions: 330000000 cycles: 876358574 heartbeat IPC: 0.189742 cumulative IPC: 0.188778 (Simulation time: 34 hr 8 min 30 sec) 
 Total Blocks : 262144 Invalid Blocks : 0
Heartbeat CPU 4 instructions: 330000000 cycles: 876484373 heartbeat IPC: 0.189934 cumulative IPC: 0.188744 (Simulation time: 34 hr 8 min 34 sec) 
 Total Blocks : 262144 Invalid Blocks : 0
Heartbeat CPU 2 instructions: 330000000 cycles: 877787827 heartbeat IPC: 0.18948 cumulative IPC: 0.188388 (Simulation time: 34 hr 9 min 18 sec) 
 Total Blocks : 262144 Invalid Blocks : 0
Heartbeat CPU 5 instructions: 330000000 cycles: 877802382 heartbeat IPC: 0.18945 cumulative IPC: 0.188385 (Simulation time: 34 hr 9 min 18 sec) 
 Total Blocks : 262144 Invalid Blocks : 0
Heartbeat CPU 7 instructions: 330000000 cycles: 878282222 heartbeat IPC: 0.189565 cumulative IPC: 0.188267 (Simulation time: 34 hr 9 min 35 sec) 
 Total Blocks : 262144 Invalid Blocks : 0
Heartbeat CPU 6 instructions: 330000000 cycles: 878675952 heartbeat IPC: 0.189689 cumulative IPC: 0.18815 (Simulation time: 34 hr 9 min 46 sec) 
 Total Blocks : 262144 Invalid Blocks : 0
Heartbeat CPU 1 instructions: 330000000 cycles: 878678683 heartbeat IPC: 0.189231 cumulative IPC: 0.188146 (Simulation time: 34 hr 9 min 46 sec) 
 Total Blocks : 262144 Invalid Blocks : 0
Heartbeat CPU 3 instructions: 340000000 cycles: 926906731 heartbeat IPC: 0.196822 cumulative IPC: 0.189393 (Simulation time: 34 hr 33 min 45 sec) 
 Total Blocks : 262144 Invalid Blocks : 0
Heartbeat CPU 0 instructions: 340000000 cycles: 927257007 heartbeat IPC: 0.19647 cumulative IPC: 0.189307 (Simulation time: 34 hr 34 min 2 sec) 
 Total Blocks : 262144 Invalid Blocks : 0
Heartbeat CPU 4 instructions: 340000000 cycles: 927281912 heartbeat IPC: 0.19686 cumulative IPC: 0.189301 (Simulation time: 34 hr 34 min 3 sec) 
 Total Blocks : 262144 Invalid Blocks : 0
Heartbeat CPU 2 instructions: 340000000 cycles: 928690639 heartbeat IPC: 0.196453 cumulative IPC: 0.188942 (Simulation time: 34 hr 35 min 19 sec) 
 Total Blocks : 262144 Invalid Blocks : 0
Heartbeat CPU 5 instructions: 340000000 cycles: 928702680 heartbeat IPC: 0.196462 cumulative IPC: 0.18894 (Simulation time: 34 hr 35 min 19 sec) 
 Total Blocks : 262144 Invalid Blocks : 0
Heartbeat CPU 7 instructions: 340000000 cycles: 929147895 heartbeat IPC: 0.196596 cumulative IPC: 0.188838 (Simulation time: 34 hr 35 min 48 sec) 
 Total Blocks : 262144 Invalid Blocks : 0
Heartbeat CPU 1 instructions: 340000000 cycles: 929499166 heartbeat IPC: 0.196771 cumulative IPC: 0.188737 (Simulation time: 34 hr 36 min 11 sec) 
 Total Blocks : 262144 Invalid Blocks : 0
Heartbeat CPU 6 instructions: 340000000 cycles: 929527739 heartbeat IPC: 0.19665 cumulative IPC: 0.188733 (Simulation time: 34 hr 36 min 12 sec) 
 Total Blocks : 262144 Invalid Blocks : 0
Heartbeat CPU 3 instructions: 350000000 cycles: 979732364 heartbeat IPC: 0.189302 cumulative IPC: 0.189387 (Simulation time: 35 hr 22 min 42 sec) 
 Total Blocks : 262144 Invalid Blocks : 0
Heartbeat CPU 4 instructions: 350000000 cycles: 980214481 heartbeat IPC: 0.18892 cumulative IPC: 0.189276 (Simulation time: 35 hr 23 min 5 sec) 
 Total Blocks : 262144 Invalid Blocks : 0
Heartbeat CPU 0 instructions: 350000000 cycles: 980239458 heartbeat IPC: 0.188742 cumulative IPC: 0.18927 (Simulation time: 35 hr 23 min 6 sec) 
 Total Blocks : 262144 Invalid Blocks : 0
Heartbeat CPU 5 instructions: 350000000 cycles: 981694772 heartbeat IPC: 0.188707 cumulative IPC: 0.188924 (Simulation time: 35 hr 24 min 25 sec) 
 Total Blocks : 262144 Invalid Blocks : 0
Heartbeat CPU 2 instructions: 350000000 cycles: 981703955 heartbeat IPC: 0.188632 cumulative IPC: 0.188922 (Simulation time: 35 hr 24 min 25 sec) 
 Total Blocks : 262144 Invalid Blocks : 0
Heartbeat CPU 7 instructions: 350000000 cycles: 982107815 heartbeat IPC: 0.188822 cumulative IPC: 0.188837 (Simulation time: 35 hr 24 min 42 sec) 
 Total Blocks : 262144 Invalid Blocks : 0
Heartbeat CPU 1 instructions: 350000000 cycles: 982485329 heartbeat IPC: 0.188729 cumulative IPC: 0.188737 (Simulation time: 35 hr 24 min 58 sec) 
 Total Blocks : 262144 Invalid Blocks : 0
Heartbeat CPU 6 instructions: 350000000 cycles: 982492470 heartbeat IPC: 0.188805 cumulative IPC: 0.188738 (Simulation time: 35 hr 24 min 59 sec) 
 Total Blocks : 262144 Invalid Blocks : 0
Heartbeat CPU 3 instructions: 360000000 cycles: 1031709886 heartbeat IPC: 0.192391 cumulative IPC: 0.189572 (Simulation time: 36 hr 9 min 19 sec) 
 Total Blocks : 262144 Invalid Blocks : 0
Heartbeat CPU 4 instructions: 360000000 cycles: 1032372326 heartbeat IPC: 0.191726 cumulative IPC: 0.189427 (Simulation time: 36 hr 9 min 50 sec) 
 Total Blocks : 262144 Invalid Blocks : 0
Heartbeat CPU 0 instructions: 360000000 cycles: 1032381937 heartbeat IPC: 0.191782 cumulative IPC: 0.189425 (Simulation time: 36 hr 9 min 50 sec) 
 Total Blocks : 262144 Invalid Blocks : 0
Heartbeat CPU 2 instructions: 360000000 cycles: 1033837119 heartbeat IPC: 0.191816 cumulative IPC: 0.1891 (Simulation time: 36 hr 11 min 12 sec) 
 Total Blocks : 262144 Invalid Blocks : 0
Heartbeat CPU 5 instructions: 360000000 cycles: 1033865798 heartbeat IPC: 0.191677 cumulative IPC: 0.189094 (Simulation time: 36 hr 11 min 13 sec) 
 Total Blocks : 262144 Invalid Blocks : 0
Heartbeat CPU 7 instructions: 360000000 cycles: 1034210271 heartbeat IPC: 0.19193 cumulative IPC: 0.189028 (Simulation time: 36 hr 11 min 33 sec) 
 Total Blocks : 262144 Invalid Blocks : 0
Heartbeat CPU 1 instructions: 360000000 cycles: 1034616262 heartbeat IPC: 0.191825 cumulative IPC: 0.188927 (Simulation time: 36 hr 11 min 56 sec) 
 Total Blocks : 262144 Invalid Blocks : 0
Heartbeat CPU 6 instructions: 360000000 cycles: 1034638651 heartbeat IPC: 0.191769 cumulative IPC: 0.188924 (Simulation time: 36 hr 11 min 57 sec) 
 Total Blocks : 262144 Invalid Blocks : 0
Heartbeat CPU 3 instructions: 370000000 cycles: 1083885777 heartbeat IPC: 0.191659 cumulative IPC: 0.189693 (Simulation time: 36 hr 55 min 4 sec) 
 Total Blocks : 262144 Invalid Blocks : 0
Heartbeat CPU 4 instructions: 370000000 cycles: 1084718470 heartbeat IPC: 0.191036 cumulative IPC: 0.189521 (Simulation time: 36 hr 55 min 57 sec) 
 Total Blocks : 262144 Invalid Blocks : 0
Heartbeat CPU 0 instructions: 370000000 cycles: 1084743264 heartbeat IPC: 0.190981 cumulative IPC: 0.189516 (Simulation time: 36 hr 55 min 58 sec) 
 Total Blocks : 262144 Invalid Blocks : 0
Heartbeat CPU 2 instructions: 370000000 cycles: 1086039343 heartbeat IPC: 0.191563 cumulative IPC: 0.189243 (Simulation time: 36 hr 57 min 17 sec) 
 Total Blocks : 262144 Invalid Blocks : 0
Heartbeat CPU 5 instructions: 370000000 cycles: 1086147311 heartbeat IPC: 0.191272 cumulative IPC: 0.189221 (Simulation time: 36 hr 57 min 23 sec) 
 Total Blocks : 262144 Invalid Blocks : 0
Heartbeat CPU 7 instructions: 370000000 cycles: 1086415827 heartbeat IPC: 0.19155 cumulative IPC: 0.189174 (Simulation time: 36 hr 57 min 40 sec) 
 Total Blocks : 262144 Invalid Blocks : 0
Heartbeat CPU 1 instructions: 370000000 cycles: 1086929079 heartbeat IPC: 0.191158 cumulative IPC: 0.189056 (Simulation time: 36 hr 58 min 9 sec) 
 Total Blocks : 262144 Invalid Blocks : 0
Heartbeat CPU 6 instructions: 370000000 cycles: 1086978406 heartbeat IPC: 0.191059 cumulative IPC: 0.189049 (Simulation time: 36 hr 58 min 12 sec) 
 Total Blocks : 262144 Invalid Blocks : 0
Heartbeat CPU 3 instructions: 380000003 cycles: 1135711504 heartbeat IPC: 0.192954 cumulative IPC: 0.189872 (Simulation time: 37 hr 42 min 58 sec) 
 Total Blocks : 262144 Invalid Blocks : 0
Heartbeat CPU 4 instructions: 380000003 cycles: 1136583086 heartbeat IPC: 0.19281 cumulative IPC: 0.189701 (Simulation time: 37 hr 43 min 47 sec) 
 Total Blocks : 262144 Invalid Blocks : 0
Heartbeat CPU 0 instructions: 380000003 cycles: 1136651890 heartbeat IPC: 0.192646 cumulative IPC: 0.189687 (Simulation time: 37 hr 43 min 50 sec) 
 Total Blocks : 262144 Invalid Blocks : 0
Heartbeat CPU 5 instructions: 380000003 cycles: 1138031732 heartbeat IPC: 0.192736 cumulative IPC: 0.189413 (Simulation time: 37 hr 45 min 3 sec) 
 Total Blocks : 262144 Invalid Blocks : 0
Heartbeat CPU 2 instructions: 380000003 cycles: 1138048924 heartbeat IPC: 0.192272 cumulative IPC: 0.189409 (Simulation time: 37 hr 45 min 4 sec) 
 Total Blocks : 262144 Invalid Blocks : 0
Heartbeat CPU 7 instructions: 380000003 cycles: 1138349051 heartbeat IPC: 0.192555 cumulative IPC: 0.189359 (Simulation time: 37 hr 45 min 20 sec) 
 Total Blocks : 262144 Invalid Blocks : 0
Heartbeat CPU 1 instructions: 380000003 cycles: 1138793650 heartbeat IPC: 0.19281 cumulative IPC: 0.189261 (Simulation time: 37 hr 45 min 44 sec) 
 Total Blocks : 262144 Invalid Blocks : 0
Heartbeat CPU 6 instructions: 380000003 cycles: 1138899024 heartbeat IPC: 0.192602 cumulative IPC: 0.189243 (Simulation time: 37 hr 45 min 49 sec) 
 Total Blocks : 262144 Invalid Blocks : 0
Heartbeat CPU 3 instructions: 390000000 cycles: 1187793262 heartbeat IPC: 0.192006 cumulative IPC: 0.189983 (Simulation time: 38 hr 28 min 55 sec) 
 Total Blocks : 262144 Invalid Blocks : 0
Heartbeat CPU 4 instructions: 390000000 cycles: 1188651703 heartbeat IPC: 0.192054 cumulative IPC: 0.189823 (Simulation time: 38 hr 29 min 48 sec) 
 Total Blocks : 262144 Invalid Blocks : 0
Heartbeat CPU 0 instructions: 390000000 cycles: 1188693931 heartbeat IPC: 0.192152 cumulative IPC: 0.189815 (Simulation time: 38 hr 29 min 50 sec) 
 Total Blocks : 262144 Invalid Blocks : 0
Heartbeat CPU 5 instructions: 390000000 cycles: 1190197115 heartbeat IPC: 0.191698 cumulative IPC: 0.189532 (Simulation time: 38 hr 31 min 6 sec) 
 Total Blocks : 262144 Invalid Blocks : 0
Heartbeat CPU 2 instructions: 390000000 cycles: 1190215946 heartbeat IPC: 0.191692 cumulative IPC: 0.189528 (Simulation time: 38 hr 31 min 7 sec) 
 Total Blocks : 262144 Invalid Blocks : 0
Heartbeat CPU 7 instructions: 390000000 cycles: 1190378837 heartbeat IPC: 0.192198 cumulative IPC: 0.189506 (Simulation time: 38 hr 31 min 14 sec) 
 Total Blocks : 262144 Invalid Blocks : 0
Heartbeat CPU 1 instructions: 390000000 cycles: 1190813233 heartbeat IPC: 0.192235 cumulative IPC: 0.189415 (Simulation time: 38 hr 31 min 35 sec) 
 Total Blocks : 262144 Invalid Blocks : 0
Heartbeat CPU 6 instructions: 390000000 cycles: 1190901239 heartbeat IPC: 0.192299 cumulative IPC: 0.189401 (Simulation time: 38 hr 31 min 40 sec) 
 Total Blocks : 262144 Invalid Blocks : 0
Heartbeat CPU 3 instructions: 400000000 cycles: 1239726928 heartbeat IPC: 0.192553 cumulative IPC: 0.19011 (Simulation time: 39 hr 13 min 26 sec) 
 Total Blocks : 262144 Invalid Blocks : 0
Finished CPU 3 instructions: 200000001 cycles: 1052004444 cumulative IPC: 0.190113 (Simulation time: 39 hr 13 min 29 sec) 
Heartbeat CPU 4 instructions: 400000000 cycles: 1240623972 heartbeat IPC: 0.19241 cumulative IPC: 0.189951 (Simulation time: 39 hr 14 min 10 sec) 
 Total Blocks : 262144 Invalid Blocks : 0
Finished CPU 4 instructions: 200000002 cycles: 1052886298 cumulative IPC: 0.189954 (Simulation time: 39 hr 14 min 11 sec) 
Heartbeat CPU 0 instructions: 400000000 cycles: 1240668897 heartbeat IPC: 0.1924 cumulative IPC: 0.189943 (Simulation time: 39 hr 14 min 12 sec) 
 Total Blocks : 262144 Invalid Blocks : 0
Finished CPU 0 instructions: 200000003 cycles: 1052933708 cumulative IPC: 0.189945 (Simulation time: 39 hr 14 min 14 sec) 
Heartbeat CPU 7 instructions: 400000000 cycles: 1242334666 heartbeat IPC: 0.192471 cumulative IPC: 0.189652 (Simulation time: 39 hr 15 min 36 sec) 
 Total Blocks : 262144 Invalid Blocks : 0
Finished CPU 7 instructions: 200000003 cycles: 1054561955 cumulative IPC: 0.189652 (Simulation time: 39 hr 15 min 36 sec) 
Heartbeat CPU 5 instructions: 400000000 cycles: 1242349176 heartbeat IPC: 0.191747 cumulative IPC: 0.189641 (Simulation time: 39 hr 15 min 37 sec) 
 Total Blocks : 262144 Invalid Blocks : 0
Heartbeat CPU 2 instructions: 400000000 cycles: 1242350950 heartbeat IPC: 0.19181 cumulative IPC: 0.18964 (Simulation time: 39 hr 15 min 37 sec) 
 Total Blocks : 262144 Invalid Blocks : 0
Finished CPU 5 instructions: 200000000 cycles: 1054608519 cumulative IPC: 0.189644 (Simulation time: 39 hr 15 min 38 sec) 
Finished CPU 2 instructions: 200000002 cycles: 1054611230 cumulative IPC: 0.189643 (Simulation time: 39 hr 15 min 39 sec) 
Heartbeat CPU 1 instructions: 400000000 cycles: 1242788769 heartbeat IPC: 0.192398 cumulative IPC: 0.189562 (Simulation time: 39 hr 15 min 58 sec) 
 Total Blocks : 262144 Invalid Blocks : 0
Finished CPU 1 instructions: 200000003 cycles: 1055046830 cumulative IPC: 0.189565 (Simulation time: 39 hr 16 min 0 sec) 
Heartbeat CPU 6 instructions: 400000000 cycles: 1242886428 heartbeat IPC: 0.192362 cumulative IPC: 0.189547 (Simulation time: 39 hr 16 min 4 sec) 
 Total Blocks : 262144 Invalid Blocks : 0
Finished CPU 6 instructions: 200000003 cycles: 1055135887 cumulative IPC: 0.189549 (Simulation time: 39 hr 16 min 5 sec) 

CPU 0 Branch Prediction Accuracy: 92.9887% MPKI: 10.465 Average ROB Occupancy at Mispredict: 86.4893

CPU 1 Branch Prediction Accuracy: 92.988% MPKI: 10.4658 Average ROB Occupancy at Mispredict: 86.4934

CPU 2 Branch Prediction Accuracy: 92.9871% MPKI: 10.4673 Average ROB Occupancy at Mispredict: 86.4802

CPU 3 Branch Prediction Accuracy: 92.9879% MPKI: 10.4664 Average ROB Occupancy at Mispredict: 86.4801

CPU 4 Branch Prediction Accuracy: 92.9887% MPKI: 10.465 Average ROB Occupancy at Mispredict: 86.4968

CPU 5 Branch Prediction Accuracy: 92.9872% MPKI: 10.4672 Average ROB Occupancy at Mispredict: 86.4833

CPU 6 Branch Prediction Accuracy: 92.9878% MPKI: 10.4663 Average ROB Occupancy at Mispredict: 86.4883

CPU 7 Branch Prediction Accuracy: 92.9872% MPKI: 10.4677 Average ROB Occupancy at Mispredict: 86.4759

ChampSim completed all CPUs

Total Simulation Statistics (not including warmup)

CPU 0 cumulative IPC: 0.189951 instructions: 200424336 cycles: 1055135887
ITLB TOTAL     ACCESS: 32037550  HIT: 31722809  MISS: 314741  HIT %: 99.0176  MISS %: 0.982413  AVERAGE MISS PENALTY: 10.7251
ITLB LOAD      ACCESS: 32037550  HIT: 31722809  MISS: 314741  HIT %: 99.0176  MISS %: 0.982413  AVERAGE MISS PENALTY: 10.7251
ITLB RFO       ACCESS:     0  HIT:     0  MISS:     0  HIT %:     0  MISS %:     0  AVERAGE MISS PENALTY: 0
ITLB PREFETCH  ACCESS:     0  HIT:     0  MISS:     0  HIT %:     0  MISS %:     0  AVERAGE MISS PENALTY: 0
ITLB WRITEBACK ACCESS:     0  HIT:     0  MISS:     0  HIT %:     0  MISS %:     0  AVERAGE MISS PENALTY: 0

DTLB TOTAL     ACCESS: 81438604  HIT: 77278966  MISS: 4159638  HIT %: 94.8923  MISS %: 5.1077  AVERAGE MISS PENALTY: 81.517
DTLB LOAD      ACCESS: 50118687  HIT: 46460826  MISS: 3657861  HIT %: 92.7016  MISS %: 7.2984  AVERAGE MISS PENALTY: 85.1773
DTLB RFO       ACCESS: 31319917  HIT: 30818140  MISS: 501777  HIT %: 98.3979  MISS %: 1.6021  AVERAGE MISS PENALTY: 54.8337
DTLB PREFETCH  ACCESS:     0  HIT:     0  MISS:     0  HIT %:     0  MISS %:     0  AVERAGE MISS PENALTY: 0
DTLB WRITEBACK ACCESS:     0  HIT:     0  MISS:     0  HIT %:     0  MISS %:     0  AVERAGE MISS PENALTY: 0

STLB TOTAL     ACCESS: 4474378  HIT: 3510664  MISS: 963714  HIT %: 78.4615  MISS %: 21.5385  AVERAGE MISS PENALTY: 100
STLB LOAD      ACCESS: 3972601  HIT: 3193082  MISS: 779519  HIT %: 80.3776  MISS %: 19.6224  AVERAGE MISS PENALTY: 100
STLB RFO       ACCESS: 501777  HIT: 317582  MISS: 184195  HIT %: 63.2915  MISS %: 36.7085  AVERAGE MISS PENALTY: 100
STLB PREFETCH  ACCESS:     0  HIT:     0  MISS:     0  HIT %:     0  MISS %:     0  AVERAGE MISS PENALTY: 0
STLB WRITEBACK ACCESS:     0  HIT:     0  MISS:     0  HIT %:     0  MISS %:     0  AVERAGE MISS PENALTY: 0

L1D TOTAL     ACCESS: 118290525  HIT: 110745553  MISS: 7544972  HIT %: 93.6217  MISS %: 6.37834  AVERAGE MISS PENALTY: 9.08564e+06
L1D LOAD      ACCESS: 53017301  HIT: 49897939  MISS: 3119362  HIT %: 94.1163  MISS %: 5.88367  AVERAGE MISS PENALTY: 1.71466e+07
L1D RFO       ACCESS: 36678051  HIT: 36373001  MISS: 305050  HIT %: 99.1683  MISS %: 0.831696  AVERAGE MISS PENALTY: 4.93805e+07
L1D PREFETCH  ACCESS: 28595173  HIT: 24474613  MISS: 4120560  HIT %: 85.59  MISS %: 14.41  AVERAGE MISS PENALTY: 243.551
L1D WRITEBACK ACCESS:     0  HIT:     0  MISS:     0  HIT %:     0  MISS %:     0  AVERAGE MISS PENALTY: 0

L1I TOTAL     ACCESS: 42388960  HIT: 42263750  MISS: 125210  HIT %: 99.7046  MISS %: 0.295384  AVERAGE MISS PENALTY: 61.2421
L1I LOAD      ACCESS: 42388960  HIT: 42263750  MISS: 125210  HIT %: 99.7046  MISS %: 0.295384  AVERAGE MISS PENALTY: 61.2421
L1I RFO       ACCESS:     0  HIT:     0  MISS:     0  HIT %:     0  MISS %:     0  AVERAGE MISS PENALTY: 0
L1I PREFETCH  ACCESS:     0  HIT:     0  MISS:     0  HIT %:     0  MISS %:     0  AVERAGE MISS PENALTY: 0
L1I WRITEBACK ACCESS:     0  HIT:     0  MISS:     0  HIT %:     0  MISS %:     0  AVERAGE MISS PENALTY: 0

L2C TOTAL     ACCESS: 12657326  HIT: 5991727  MISS: 6665599  HIT %: 47.338  MISS %: 52.662  AVERAGE MISS PENALTY: 8.72962e+06
L2C LOAD      ACCESS: 3239591  HIT: 1261350  MISS: 1978241  HIT %: 38.9355  MISS %: 61.0645  AVERAGE MISS PENALTY: 2.80261e+07
L2C RFO       ACCESS: 283977  HIT: 89368  MISS: 194609  HIT %: 31.4702  MISS %: 68.5298  AVERAGE MISS PENALTY: 1.41031e+07
L2C PREFETCH  ACCESS: 7177806  HIT: 2693395  MISS: 4484411  HIT %: 37.5239  MISS %: 62.4761  AVERAGE MISS PENALTY: 284.586
L2C WRITEBACK ACCESS: 1955952  HIT: 1947614  MISS:  8338  HIT %: 99.5737  MISS %: 0.426289  AVERAGE MISS PENALTY: 0


LLC0 TOTAL     ACCESS: 980923  HIT: 309237  MISS: 671686  HIT %: 31.5251  MISS %: 68.4749  AVERAGE MISS PENALTY: 273.009
LLC0 LOAD      ACCESS: 249489  HIT: 55650  MISS: 193839  HIT %: 22.3056  MISS %: 77.6944  AVERAGE MISS PENALTY: 286.439
LLC0 RFO       ACCESS: 26461  HIT:  7623  MISS: 18838  HIT %: 28.8084  MISS %: 71.1916  AVERAGE MISS PENALTY: 281.169
LLC0 PREFETCH  ACCESS: 518443  HIT: 96463  MISS: 421980  HIT %: 18.6063  MISS %: 81.3937  AVERAGE MISS PENALTY: 290.432
LLC0 WRITEBACK ACCESS: 186530  HIT: 149501  MISS: 37029  HIT %: 80.1485  MISS %: 19.8515  AVERAGE MISS PENALTY: 0

LLC1 TOTAL     ACCESS: 1008379  HIT: 315723  MISS: 692656  HIT %: 31.31  MISS %: 68.69  AVERAGE MISS PENALTY: 275.384
LLC1 LOAD      ACCESS: 240631  HIT: 54187  MISS: 186444  HIT %: 22.5187  MISS %: 77.4813  AVERAGE MISS PENALTY: 289.093
LLC1 RFO       ACCESS: 24150  HIT:  6776  MISS: 17374  HIT %: 28.058  MISS %: 71.942  AVERAGE MISS PENALTY: 281.815
LLC1 PREFETCH  ACCESS: 556170  HIT: 103803  MISS: 452367  HIT %: 18.6639  MISS %: 81.3361  AVERAGE MISS PENALTY: 291.689
LLC1 WRITEBACK ACCESS: 187428  HIT: 150957  MISS: 36471  HIT %: 80.5413  MISS %: 19.4587  AVERAGE MISS PENALTY: 0

LLC2 TOTAL     ACCESS: 1025468  HIT: 316806  MISS: 708662  HIT %: 30.8938  MISS %: 69.1062  AVERAGE MISS PENALTY: 281.194
LLC2 LOAD      ACCESS: 237408  HIT: 52220  MISS: 185188  HIT %: 21.9959  MISS %: 78.0041  AVERAGE MISS PENALTY: 290.074
LLC2 RFO       ACCESS: 23135  HIT:  6623  MISS: 16512  HIT %: 28.6276  MISS %: 71.3724  AVERAGE MISS PENALTY: 285.335
LLC2 PREFETCH  ACCESS: 576337  HIT: 106418  MISS: 469919  HIT %: 18.4645  MISS %: 81.5355  AVERAGE MISS PENALTY: 299.715
LLC2 WRITEBACK ACCESS: 188588  HIT: 151545  MISS: 37043  HIT %: 80.3577  MISS %: 19.6423  AVERAGE MISS PENALTY: 0

LLC3 TOTAL     ACCESS: 1026057  HIT: 317126  MISS: 708931  HIT %: 30.9072  MISS %: 69.0928  AVERAGE MISS PENALTY: 282.827
LLC3 LOAD      ACCESS: 236379  HIT: 51620  MISS: 184759  HIT %: 21.8378  MISS %: 78.1622  AVERAGE MISS PENALTY: 291.538
LLC3 RFO       ACCESS: 23390  HIT:  6660  MISS: 16730  HIT %: 28.4737  MISS %: 71.5263  AVERAGE MISS PENALTY: 289.013
LLC3 PREFETCH  ACCESS: 577174  HIT: 107083  MISS: 470091  HIT %: 18.553  MISS %: 81.447  AVERAGE MISS PENALTY: 301.655
LLC3 WRITEBACK ACCESS: 189114  HIT: 151763  MISS: 37351  HIT %: 80.2495  MISS %: 19.7505  AVERAGE MISS PENALTY: 0

LLC4 TOTAL     ACCESS: 1027665  HIT: 318426  MISS: 709239  HIT %: 30.9854  MISS %: 69.0146  AVERAGE MISS PENALTY: 277.62
LLC4 LOAD      ACCESS: 242056  HIT: 56237  MISS: 185819  HIT %: 23.2331  MISS %: 76.7669  AVERAGE MISS PENALTY: 291.176
LLC4 RFO       ACCESS: 23436  HIT:  6666  MISS: 16770  HIT %: 28.4434  MISS %: 71.5566  AVERAGE MISS PENALTY: 283.922
LLC4 PREFETCH  ACCESS: 576176  HIT: 105639  MISS: 470537  HIT %: 18.3345  MISS %: 81.6655  AVERAGE MISS PENALTY: 293.349
LLC4 WRITEBACK ACCESS: 185997  HIT: 149884  MISS: 36113  HIT %: 80.5841  MISS %: 19.4159  AVERAGE MISS PENALTY: 0

LLC5 TOTAL     ACCESS: 1030195  HIT: 320472  MISS: 709723  HIT %: 31.1079  MISS %: 68.8921  AVERAGE MISS PENALTY: 277.948
LLC5 LOAD      ACCESS: 239667  HIT: 55162  MISS: 184505  HIT %: 23.0161  MISS %: 76.9839  AVERAGE MISS PENALTY: 291.22
LLC5 RFO       ACCESS: 23510  HIT:  6536  MISS: 16974  HIT %: 27.8009  MISS %: 72.1991  AVERAGE MISS PENALTY: 286.791
LLC5 PREFETCH  ACCESS: 581157  HIT: 109379  MISS: 471778  HIT %: 18.8209  MISS %: 81.1791  AVERAGE MISS PENALTY: 293.923
LLC5 WRITEBACK ACCESS: 185861  HIT: 149395  MISS: 36466  HIT %: 80.38  MISS %: 19.62  AVERAGE MISS PENALTY: 0

LLC6 TOTAL     ACCESS: 1031395  HIT: 321636  MISS: 709759  HIT %: 31.1846  MISS %: 68.8154  AVERAGE MISS PENALTY: 284.426
LLC6 LOAD      ACCESS: 244275  HIT: 56140  MISS: 188135  HIT %: 22.9823  MISS %: 77.0177  AVERAGE MISS PENALTY: 293.368
LLC6 RFO       ACCESS: 23433  HIT:  6673  MISS: 16760  HIT %: 28.4769  MISS %: 71.5231  AVERAGE MISS PENALTY: 289.883
LLC6 PREFETCH  ACCESS: 574680  HIT: 106692  MISS: 467988  HIT %: 18.5655  MISS %: 81.4345  AVERAGE MISS PENALTY: 303.048
LLC6 WRITEBACK ACCESS: 189007  HIT: 152131  MISS: 36876  HIT %: 80.4896  MISS %: 19.5104  AVERAGE MISS PENALTY: 0

LLC7 TOTAL     ACCESS: 1026487  HIT: 317102  MISS: 709385  HIT %: 30.892  MISS %: 69.108  AVERAGE MISS PENALTY: 285.214
LLC7 LOAD      ACCESS: 237620  HIT: 52047  MISS: 185573  HIT %: 21.9035  MISS %: 78.0965  AVERAGE MISS PENALTY: 293.98
LLC7 RFO       ACCESS: 23283  HIT:  6536  MISS: 16747  HIT %: 28.072  MISS %: 71.928  AVERAGE MISS PENALTY: 291.737
LLC7 PREFETCH  ACCESS: 578787  HIT: 108231  MISS: 470556  HIT %: 18.6996  MISS %: 81.3004  AVERAGE MISS PENALTY: 303.654
LLC7 WRITEBACK ACCESS: 186797  HIT: 150288  MISS: 36509  HIT %: 80.4553  MISS %: 19.5447  AVERAGE MISS PENALTY: 0

Total Rob stall cycles : 	990290323
Total Load Rob Stall cycles : 	352455881
Average Rob Stall cycles : 	 13
Average Load Rob Stall cycles : 	 35

CPU 1 cumulative IPC: 0.189571 instructions: 200023507 cycles: 1055135887
ITLB TOTAL     ACCESS: 31972318  HIT: 31658262  MISS: 314056  HIT %: 99.0177  MISS %: 0.982275  AVERAGE MISS PENALTY: 10.7185
ITLB LOAD      ACCESS: 31972318  HIT: 31658262  MISS: 314056  HIT %: 99.0177  MISS %: 0.982275  AVERAGE MISS PENALTY: 10.7185
ITLB RFO       ACCESS:     0  HIT:     0  MISS:     0  HIT %:     0  MISS %:     0  AVERAGE MISS PENALTY: 0
ITLB PREFETCH  ACCESS:     0  HIT:     0  MISS:     0  HIT %:     0  MISS %:     0  AVERAGE MISS PENALTY: 0
ITLB WRITEBACK ACCESS:     0  HIT:     0  MISS:     0  HIT %:     0  MISS %:     0  AVERAGE MISS PENALTY: 0

DTLB TOTAL     ACCESS: 81274797  HIT: 77124044  MISS: 4150753  HIT %: 94.8929  MISS %: 5.10706  AVERAGE MISS PENALTY: 36.37
DTLB LOAD      ACCESS: 50016803  HIT: 46366726  MISS: 3650077  HIT %: 92.7023  MISS %: 7.2977  AVERAGE MISS PENALTY: 33.8416
DTLB RFO       ACCESS: 31257994  HIT: 30757318  MISS: 500676  HIT %: 98.3982  MISS %: 1.60175  AVERAGE MISS PENALTY: 54.8024
DTLB PREFETCH  ACCESS:     0  HIT:     0  MISS:     0  HIT %:     0  MISS %:     0  AVERAGE MISS PENALTY: 0
DTLB WRITEBACK ACCESS:     0  HIT:     0  MISS:     0  HIT %:     0  MISS %:     0  AVERAGE MISS PENALTY: 0

STLB TOTAL     ACCESS: 4464809  HIT: 3503207  MISS: 961602  HIT %: 78.4626  MISS %: 21.5374  AVERAGE MISS PENALTY: 100
STLB LOAD      ACCESS: 3964133  HIT: 3186269  MISS: 777864  HIT %: 80.3774  MISS %: 19.6226  AVERAGE MISS PENALTY: 100
STLB RFO       ACCESS: 500676  HIT: 316938  MISS: 183738  HIT %: 63.302  MISS %: 36.698  AVERAGE MISS PENALTY: 100
STLB PREFETCH  ACCESS:     0  HIT:     0  MISS:     0  HIT %:     0  MISS %:     0  AVERAGE MISS PENALTY: 0
STLB WRITEBACK ACCESS:     0  HIT:     0  MISS:     0  HIT %:     0  MISS %:     0  AVERAGE MISS PENALTY: 0

L1D TOTAL     ACCESS: 118056390  HIT: 110526139  MISS: 7530251  HIT %: 93.6215  MISS %: 6.37852  AVERAGE MISS PENALTY: 9.06587e+06
L1D LOAD      ACCESS: 52908625  HIT: 49795681  MISS: 3112944  HIT %: 94.1164  MISS %: 5.88362  AVERAGE MISS PENALTY: 1.71635e+07
L1D RFO       ACCESS: 36607112  HIT: 36302931  MISS: 304181  HIT %: 99.1691  MISS %: 0.830934  AVERAGE MISS PENALTY: 4.87819e+07
L1D PREFETCH  ACCESS: 28540653  HIT: 24427527  MISS: 4113126  HIT %: 85.5885  MISS %: 14.4115  AVERAGE MISS PENALTY: 198.555
L1D WRITEBACK ACCESS:     0  HIT:     0  MISS:     0  HIT %:     0  MISS %:     0  AVERAGE MISS PENALTY: 0

L1I TOTAL     ACCESS: 42303477  HIT: 42178492  MISS: 124985  HIT %: 99.7046  MISS %: 0.295449  AVERAGE MISS PENALTY: 58.028
L1I LOAD      ACCESS: 42303477  HIT: 42178492  MISS: 124985  HIT %: 99.7046  MISS %: 0.295449  AVERAGE MISS PENALTY: 58.028
L1I RFO       ACCESS:     0  HIT:     0  MISS:     0  HIT %:     0  MISS %:     0  AVERAGE MISS PENALTY: 0
L1I PREFETCH  ACCESS:     0  HIT:     0  MISS:     0  HIT %:     0  MISS %:     0  AVERAGE MISS PENALTY: 0
L1I WRITEBACK ACCESS:     0  HIT:     0  MISS:     0  HIT %:     0  MISS %:     0  AVERAGE MISS PENALTY: 0

L2C TOTAL     ACCESS: 12632248  HIT: 5992673  MISS: 6639575  HIT %: 47.4395  MISS %: 52.5605  AVERAGE MISS PENALTY: 8.78084e+06
L2C LOAD      ACCESS: 3232928  HIT: 1263722  MISS: 1969206  HIT %: 39.0891  MISS %: 60.9109  AVERAGE MISS PENALTY: 2.82193e+07
L2C RFO       ACCESS: 283399  HIT: 89251  MISS: 194148  HIT %: 31.4931  MISS %: 68.5069  AVERAGE MISS PENALTY: 1.40628e+07
L2C PREFETCH  ACCESS: 7164156  HIT: 2695554  MISS: 4468602  HIT %: 37.6256  MISS %: 62.3744  AVERAGE MISS PENALTY: 286.253
L2C WRITEBACK ACCESS: 1951765  HIT: 1944146  MISS:  7619  HIT %: 99.6096  MISS %: 0.390365  AVERAGE MISS PENALTY: 0


LLC0 TOTAL     ACCESS: 977772  HIT: 307377  MISS: 670395  HIT %: 31.4365  MISS %: 68.5635  AVERAGE MISS PENALTY: 274.414
LLC0 LOAD      ACCESS: 248400  HIT: 55033  MISS: 193367  HIT %: 22.155  MISS %: 77.845  AVERAGE MISS PENALTY: 288.027
LLC0 RFO       ACCESS: 26430  HIT:  7621  MISS: 18809  HIT %: 28.8347  MISS %: 71.1653  AVERAGE MISS PENALTY: 283.21
LLC0 PREFETCH  ACCESS: 516567  HIT: 95610  MISS: 420957  HIT %: 18.5087  MISS %: 81.4913  AVERAGE MISS PENALTY: 292.058
LLC0 WRITEBACK ACCESS: 186375  HIT: 149113  MISS: 37262  HIT %: 80.007  MISS %: 19.993  AVERAGE MISS PENALTY: 0

LLC1 TOTAL     ACCESS: 1003989  HIT: 312848  MISS: 691141  HIT %: 31.1605  MISS %: 68.8395  AVERAGE MISS PENALTY: 277.065
LLC1 LOAD      ACCESS: 239558  HIT: 53425  MISS: 186133  HIT %: 22.3015  MISS %: 77.6985  AVERAGE MISS PENALTY: 291.759
LLC1 RFO       ACCESS: 24102  HIT:  6858  MISS: 17244  HIT %: 28.4541  MISS %: 71.5459  AVERAGE MISS PENALTY: 282.179
LLC1 PREFETCH  ACCESS: 553462  HIT: 102532  MISS: 450930  HIT %: 18.5256  MISS %: 81.4744  AVERAGE MISS PENALTY: 293.436
LLC1 WRITEBACK ACCESS: 186867  HIT: 150033  MISS: 36834  HIT %: 80.2887  MISS %: 19.7113  AVERAGE MISS PENALTY: 0

LLC2 TOTAL     ACCESS: 1021470  HIT: 313847  MISS: 707623  HIT %: 30.725  MISS %: 69.275  AVERAGE MISS PENALTY: 282.472
LLC2 LOAD      ACCESS: 236107  HIT: 51515  MISS: 184592  HIT %: 21.8185  MISS %: 78.1815  AVERAGE MISS PENALTY: 291.763
LLC2 RFO       ACCESS: 23059  HIT:  6420  MISS: 16639  HIT %: 27.8416  MISS %: 72.1584  AVERAGE MISS PENALTY: 285.939
LLC2 PREFETCH  ACCESS: 574090  HIT: 104975  MISS: 469115  HIT %: 18.2855  MISS %: 81.7145  AVERAGE MISS PENALTY: 301.14
LLC2 WRITEBACK ACCESS: 188214  HIT: 150937  MISS: 37277  HIT %: 80.1944  MISS %: 19.8056  AVERAGE MISS PENALTY: 0

LLC3 TOTAL     ACCESS: 1022654  HIT: 314853  MISS: 707801  HIT %: 30.7878  MISS %: 69.2122  AVERAGE MISS PENALTY: 284.723
[...]
LLC2 TOTAL     ACCESS: 1025028  HIT: 316720  MISS: 708308  HIT %: 30.8987  MISS %: 69.1013  AVERAGE MISS PENALTY: 282.909
LLC2 LOAD      ACCESS: 237251  HIT: 52358  MISS: 184893  HIT %: 22.0686  MISS %: 77.9314  AVERAGE MISS PENALTY: 291.521
LLC2 RFO       ACCESS: 23103  HIT:  6589  MISS: 16514  HIT %: 28.5201  MISS %: 71.4799  AVERAGE MISS PENALTY: 286.344
LLC2 PREFETCH  ACCESS: 576449  HIT: 106898  MISS: 469551  HIT %: 18.5442  MISS %: 81.4558  AVERAGE MISS PENALTY: 301.901
LLC2 WRITEBACK ACCESS: 188225  HIT: 150875  MISS: 37350  HIT %: 80.1567  MISS %: 19.8433  AVERAGE MISS PENALTY: 0
LLC2 PREFETCH  REQUESTED:     0  ISSUED:     0  USEFUL: 75922  USELESS: 3674625
 USEFUL LOAD PREFETCHES:      75922 PREFETCH ISSUED TO LOWER LEVEL:    3756720  ACCURACY: 2.02097
 TIMELY PREFETCHES:      75922 LATE PREFETCHES: 0 DROPPED PREFETCHES: 0
LLC2 AVERAGE MISS LATENCY: 282.91 cycles
LLC3 TOTAL     ACCESS: 1025693  HIT: 318227  MISS: 707466  HIT %: 31.0256  MISS %: 68.9744  AVERAGE MISS PENALTY: 285.007
LLC3 LOAD      ACCESS: 237326  HIT: 53005  MISS: 184321  HIT %: 22.3343  MISS %: 77.6657  AVERAGE MISS PENALTY: 294.02
LLC3 RFO       ACCESS: 23328  HIT:  6604  MISS: 16724  HIT %: 28.3093  MISS %: 71.6907  AVERAGE MISS PENALTY: 289.164
LLC3 PREFETCH  ACCESS: 576592  HIT: 107460  MISS: 469132  HIT %: 18.6371  MISS %: 81.3629  AVERAGE MISS PENALTY: 303.971
LLC3 WRITEBACK ACCESS: 188447  HIT: 151158  MISS: 37289  HIT %: 80.2125  MISS %: 19.7875  AVERAGE MISS PENALTY: 0
LLC3 PREFETCH  REQUESTED:     0  ISSUED:     0  USEFUL: 77005  USELESS: 3669764
 USEFUL LOAD PREFETCHES:      77005 PREFETCH ISSUED TO LOWER LEVEL:    3752519  ACCURACY: 2.05209
 TIMELY PREFETCHES:      77005 LATE PREFETCHES: 0 DROPPED PREFETCHES: 0
LLC3 AVERAGE MISS LATENCY: 285.007 cycles
LLC4 TOTAL     ACCESS: 1027363  HIT: 318378  MISS: 708985  HIT %: 30.9898  MISS %: 69.0102  AVERAGE MISS PENALTY: 278.815
LLC4 LOAD      ACCESS: 241579  HIT: 55990  MISS: 185589  HIT %: 23.1767  MISS %: 76.8233  AVERAGE MISS PENALTY: 292.847
LLC4 RFO       ACCESS: 23424  HIT:  6541  MISS: 16883  HIT %: 27.9244  MISS %: 72.0756  AVERAGE MISS PENALTY: 286.153
LLC4 PREFETCH  ACCESS: 576533  HIT: 106522  MISS: 470011  HIT %: 18.4763  MISS %: 81.5237  AVERAGE MISS PENALTY: 294.664
LLC4 WRITEBACK ACCESS: 185827  HIT: 149325  MISS: 36502  HIT %: 80.357  MISS %: 19.643  AVERAGE MISS PENALTY: 0
LLC4 PREFETCH  REQUESTED:     0  ISSUED:     0  USEFUL: 78170  USELESS: 3675564
 USEFUL LOAD PREFETCHES:      78170 PREFETCH ISSUED TO LOWER LEVEL:    3759483  ACCURACY: 2.07928
 TIMELY PREFETCHES:      78170 LATE PREFETCHES: 0 DROPPED PREFETCHES: 0
LLC4 AVERAGE MISS LATENCY: 278.815 cycles
LLC5 TOTAL     ACCESS: 1025573  HIT: 316901  MISS: 708672  HIT %: 30.8999  MISS %: 69.1001  AVERAGE MISS PENALTY: 279.478
LLC5 LOAD      ACCESS: 236170  HIT: 52270  MISS: 183900  HIT %: 22.1324  MISS %: 77.8676  AVERAGE MISS PENALTY: 293.732
LLC5 RFO       ACCESS: 23479  HIT:  6598  MISS: 16881  HIT %: 28.1017  MISS %: 71.8983  AVERAGE MISS PENALTY: 288.439
LLC5 PREFETCH  ACCESS: 580465  HIT: 109010  MISS: 471455  HIT %: 18.7798  MISS %: 81.2202  AVERAGE MISS PENALTY: 295.196
LLC5 WRITEBACK ACCESS: 185459  HIT: 149023  MISS: 36436  HIT %: 80.3536  MISS %: 19.6464  AVERAGE MISS PENALTY: 0
LLC5 PREFETCH  REQUESTED:     0  ISSUED:     0  USEFUL: 76413  USELESS: 3686967
 USEFUL LOAD PREFETCHES:      76413 PREFETCH ISSUED TO LOWER LEVEL:    3769636  ACCURACY: 2.02707
 TIMELY PREFETCHES:      76413 LATE PREFETCHES: 0 DROPPED PREFETCHES: 0
LLC5 AVERAGE MISS LATENCY: 279.478 cycles
LLC6 TOTAL     ACCESS: 1027514  HIT: 318660  MISS: 708854  HIT %: 31.0127  MISS %: 68.9873  AVERAGE MISS PENALTY: 286.059
LLC6 LOAD      ACCESS: 242317  HIT: 54941  MISS: 187376  HIT %: 22.6732  MISS %: 77.3268  AVERAGE MISS PENALTY: 296.06
LLC6 RFO       ACCESS: 23323  HIT:  6539  MISS: 16784  HIT %: 28.0367  MISS %: 71.9633  AVERAGE MISS PENALTY: 289.821
LLC6 PREFETCH  ACCESS: 573443  HIT: 105972  MISS: 467471  HIT %: 18.48  MISS %: 81.52  AVERAGE MISS PENALTY: 304.693
LLC6 WRITEBACK ACCESS: 188431  HIT: 151208  MISS: 37223  HIT %: 80.2458  MISS %: 19.7542  AVERAGE MISS PENALTY: 0
LLC6 PREFETCH  REQUESTED:     0  ISSUED:     0  USEFUL: 77766  USELESS: 3656310
 USEFUL LOAD PREFETCHES:      77766 PREFETCH ISSUED TO LOWER LEVEL:    3740059  ACCURACY: 2.07927
 TIMELY PREFETCHES:      77766 LATE PREFETCHES: 0 DROPPED PREFETCHES: 0
LLC6 AVERAGE MISS LATENCY: 286.059 cycles
LLC7 TOTAL     ACCESS: 1025044  HIT: 317100  MISS: 707944  HIT %: 30.9353  MISS %: 69.0647  AVERAGE MISS PENALTY: 287.22
LLC7 LOAD      ACCESS: 236782  HIT: 51805  MISS: 184977  HIT %: 21.8788  MISS %: 78.1212  AVERAGE MISS PENALTY: 295.971
LLC7 RFO       ACCESS: 23328  HIT:  6496  MISS: 16832  HIT %: 27.8464  MISS %: 72.1536  AVERAGE MISS PENALTY: 291.537
LLC7 PREFETCH  ACCESS: 578218  HIT: 108691  MISS: 469527  HIT %: 18.7976  MISS %: 81.2024  AVERAGE MISS PENALTY: 306.011
LLC7 WRITEBACK ACCESS: 186716  HIT: 150108  MISS: 36608  HIT %: 80.3938  MISS %: 19.6062  AVERAGE MISS PENALTY: 0
LLC7 PREFETCH  REQUESTED:     0  ISSUED:     0  USEFUL: 76320  USELESS: 3675445
 USEFUL LOAD PREFETCHES:      76320 PREFETCH ISSUED TO LOWER LEVEL:    3757875  ACCURACY: 2.03094
 TIMELY PREFETCHES:      76320 LATE PREFETCHES: 0 DROPPED PREFETCHES: 0
LLC7 AVERAGE MISS LATENCY: 287.22 cycles
ROI Average ROB Stall Cycles:	13.7694
ROI Total ROB Stalls Cycles:	990462117
ROI TOTAL ROB counter      :	71932101
ROI Average Load ROB Stall Cycles:	36.0449
ROI Total Load ROB Stalls Cycle  :	353897444
ROI Total Load ROB stalls Counter:	9818245
Major fault: 0 Minor fault: 54306

CPU 7 cumulative IPC: 0.189652 instructions: 200000003 cycles: 1054561955
ITLB TOTAL     ACCESS: 31966571  HIT: 31652474  MISS: 314097  HIT %: 99.0174  MISS %: 0.98258  AVERAGE MISS PENALTY: 10.7308
ITLB LOAD      ACCESS: 31966571  HIT: 31652474  MISS: 314097  HIT %: 99.0174  MISS %: 0.98258  AVERAGE MISS PENALTY: 10.7308
ITLB RFO       ACCESS:     0  HIT:     0  MISS:     0  HIT %:     0  MISS %:     0  AVERAGE MISS PENALTY: 0
ITLB PREFETCH  ACCESS:     0  HIT:     0  MISS:     0  HIT %:     0  MISS %:     0  AVERAGE MISS PENALTY: 0
ITLB WRITEBACK ACCESS:     0  HIT:     0  MISS:     0  HIT %:     0  MISS %:     0  AVERAGE MISS PENALTY: 0
ITLB PREFETCH  REQUESTED:     0  ISSUED:     0  USEFUL:     0  USELESS:     0
 USEFUL LOAD PREFETCHES:          0 PREFETCH ISSUED TO LOWER LEVEL:          0  ACCURACY: -nan
 TIMELY PREFETCHES:          0 LATE PREFETCHES: 0 DROPPED PREFETCHES: 0
ITLB AVERAGE MISS LATENCY: 10.7308 cycles
DTLB TOTAL     ACCESS: 81260057  HIT: 77109608  MISS: 4150449  HIT %: 94.8924  MISS %: 5.10761  AVERAGE MISS PENALTY: 36.3439
DTLB LOAD      ACCESS: 50005503  HIT: 46355336  MISS: 3650167  HIT %: 92.7005  MISS %: 7.29953  AVERAGE MISS PENALTY: 33.8394
DTLB RFO       ACCESS: 31254554  HIT: 30754272  MISS: 500282  HIT %: 98.3993  MISS %: 1.60067  AVERAGE MISS PENALTY: 54.6168
DTLB PREFETCH  ACCESS:     0  HIT:     0  MISS:     0  HIT %:     0  MISS %:     0  AVERAGE MISS PENALTY: 0
DTLB WRITEBACK ACCESS:     0  HIT:     0  MISS:     0  HIT %:     0  MISS %:     0  AVERAGE MISS PENALTY: 0
DTLB PREFETCH  REQUESTED:     0  ISSUED:     0  USEFUL:     0  USELESS:     0
 USEFUL LOAD PREFETCHES:          0 PREFETCH ISSUED TO LOWER LEVEL:          0  ACCURACY: -nan
 TIMELY PREFETCHES:          0 LATE PREFETCHES: 0 DROPPED PREFETCHES: 0
DTLB AVERAGE MISS LATENCY: 36.3439 cycles
STLB TOTAL     ACCESS: 4464546  HIT: 3502908  MISS: 961638  HIT %: 78.4606  MISS %: 21.5394  AVERAGE MISS PENALTY: 100
STLB LOAD      ACCESS: 3964264  HIT: 3186080  MISS: 778184  HIT %: 80.37  MISS %: 19.63  AVERAGE MISS PENALTY: 100
STLB RFO       ACCESS: 500282  HIT: 316828  MISS: 183454  HIT %: 63.3299  MISS %: 36.6701  AVERAGE MISS PENALTY: 100
STLB PREFETCH  ACCESS:     0  HIT:     0  MISS:     0  HIT %:     0  MISS %:     0  AVERAGE MISS PENALTY: 0
STLB WRITEBACK ACCESS:     0  HIT:     0  MISS:     0  HIT %:     0  MISS %:     0  AVERAGE MISS PENALTY: 0
STLB PREFETCH  REQUESTED:     0  ISSUED:     0  USEFUL:     0  USELESS:     0
 USEFUL LOAD PREFETCHES:          0 PREFETCH ISSUED TO LOWER LEVEL:          0  ACCURACY: -nan
 TIMELY PREFETCHES:          0 LATE PREFETCHES: 0 DROPPED PREFETCHES: 0
STLB AVERAGE MISS LATENCY: 100 cycles
L1D TOTAL     ACCESS: 118026283  HIT: 110496683  MISS: 7529600  HIT %: 93.6204  MISS %: 6.3796  AVERAGE MISS PENALTY: 9.10444e+06
L1D LOAD      ACCESS: 52895069  HIT: 49782231  MISS: 3112838  HIT %: 94.1151  MISS %: 5.88493  AVERAGE MISS PENALTY: 1.72023e+07
L1D RFO       ACCESS: 36599725  HIT: 36295216  MISS: 304509  HIT %: 99.168  MISS %: 0.831998  AVERAGE MISS PENALTY: 4.92727e+07
L1D PREFETCH  ACCESS: 28531489  HIT: 24419236  MISS: 4112253  HIT %: 85.587  MISS %: 14.413  AVERAGE MISS PENALTY: 198.882
L1D WRITEBACK ACCESS:     0  HIT:     0  MISS:     0  HIT %:     0  MISS %:     0  AVERAGE MISS PENALTY: 0
L1D PREFETCH  REQUESTED: 29739431  ISSUED: 29558067  USEFUL: 624504  USELESS: 3487599
 USEFUL LOAD PREFETCHES:     624504 PREFETCH ISSUED TO LOWER LEVEL:    5001639  ACCURACY: 12.486
 TIMELY PREFETCHES:     624504 LATE PREFETCHES: 563934 DROPPED PREFETCHES: 181364
L1D AVERAGE MISS LATENCY: 1.99285e+06 cycles
L1I TOTAL     ACCESS: 42295959  HIT: 42171707  MISS: 124252  HIT %: 99.7062  MISS %: 0.293768  AVERAGE MISS PENALTY: 61.9525
L1I LOAD      ACCESS: 42295959  HIT: 42171707  MISS: 124252  HIT %: 99.7062  MISS %: 0.293768  AVERAGE MISS PENALTY: 61.9525
L1I RFO       ACCESS:     0  HIT:     0  MISS:     0  HIT %:     0  MISS %:     0  AVERAGE MISS PENALTY: 0
L1I PREFETCH  ACCESS:     0  HIT:     0  MISS:     0  HIT %:     0  MISS %:     0  AVERAGE MISS PENALTY: 0
L1I WRITEBACK ACCESS:     0  HIT:     0  MISS:     0  HIT %:     0  MISS %:     0  AVERAGE MISS PENALTY: 0
L1I PREFETCH  REQUESTED:     0  ISSUED:     0  USEFUL:     0  USELESS:     0
 USEFUL LOAD PREFETCHES:          0 PREFETCH ISSUED TO LOWER LEVEL:          0  ACCURACY: -nan
 TIMELY PREFETCHES:          0 LATE PREFETCHES: 0 DROPPED PREFETCHES: 0
L1I AVERAGE MISS LATENCY: 61.9525 cycles
L2C TOTAL     ACCESS: 12631065  HIT: 5837711  MISS: 6793354  HIT %: 46.2171  MISS %: 53.7829  AVERAGE MISS PENALTY: 8.65373e+06
L2C LOAD      ACCESS: 3232058  HIT: 1217483  MISS: 2014575  HIT %: 37.669  MISS %: 62.331  AVERAGE MISS PENALTY: 2.77959e+07
L2C RFO       ACCESS: 283543  HIT: 87897  MISS: 195646  HIT %: 30.9995  MISS %: 69.0005  AVERAGE MISS PENALTY: 1.42586e+07
L2C PREFETCH  ACCESS: 7163543  HIT: 2597249  MISS: 4566294  HIT %: 36.2565  MISS %: 63.7435  AVERAGE MISS PENALTY: 280.64
L2C WRITEBACK ACCESS: 1951921  HIT: 1935082  MISS: 16839  HIT %: 99.1373  MISS %: 0.862689  AVERAGE MISS PENALTY: 0
L2C PREFETCH  REQUESTED: 5084922  ISSUED: 5014558  USEFUL: 343787  USELESS: 4221064
 USEFUL LOAD PREFETCHES:     343787 PREFETCH ISSUED TO LOWER LEVEL:    4886226  ACCURACY: 7.03584
 TIMELY PREFETCHES:     343787 LATE PREFETCHES: 258033 DROPPED PREFETCHES: 70364
L2C AVERAGE MISS LATENCY: 273.123 cycles
LLC0 TOTAL     ACCESS: 995862  HIT: 326057  MISS: 669805  HIT %: 32.7412  MISS %: 67.2588  AVERAGE MISS PENALTY: 274.287
LLC0 LOAD      ACCESS: 255934  HIT: 62424  MISS: 193510  HIT %: 24.3907  MISS %: 75.6093  AVERAGE MISS PENALTY: 287.842
LLC0 RFO       ACCESS: 26550  HIT:  7891  MISS: 18659  HIT %: 29.7213  MISS %: 70.2787  AVERAGE MISS PENALTY: 282.376
LLC0 PREFETCH  ACCESS: 526208  HIT: 105074  MISS: 421134  HIT %: 19.9681  MISS %: 80.0319  AVERAGE MISS PENALTY: 291.474
LLC0 WRITEBACK ACCESS: 187170  HIT: 150668  MISS: 36502  HIT %: 80.4979  MISS %: 19.5021  AVERAGE MISS PENALTY: 0
LLC0 PREFETCH  REQUESTED:     0  ISSUED:     0  USEFUL: 72170  USELESS: 3291645
 USEFUL LOAD PREFETCHES:      72170 PREFETCH ISSUED TO LOWER LEVEL:    3369229  ACCURACY: 2.14203
 TIMELY PREFETCHES:      72170 LATE PREFETCHES: 0 DROPPED PREFETCHES: 0
LLC0 AVERAGE MISS LATENCY: 274.287 cycles
Deadblocks : 1438070 Deadblock percentage : 743.15

LLC1 TOTAL     ACCESS: 1028345  HIT: 337225  MISS: 691120  HIT %: 32.793  MISS %: 67.207  AVERAGE MISS PENALTY: 276.825
LLC1 LOAD      ACCESS: 246379  HIT: 60270  MISS: 186109  HIT %: 24.4623  MISS %: 75.5377  AVERAGE MISS PENALTY: 290.521
LLC1 RFO       ACCESS: 24197  HIT:  6974  MISS: 17223  HIT %: 28.8218  MISS %: 71.1782  AVERAGE MISS PENALTY: 285.244
LLC1 PREFETCH  ACCESS: 568933  HIT: 117571  MISS: 451362  HIT %: 20.6652  MISS %: 79.3348  AVERAGE MISS PENALTY: 293.197
LLC1 WRITEBACK ACCESS: 188836  HIT: 152410  MISS: 36426  HIT %: 80.7102  MISS %: 19.2898  AVERAGE MISS PENALTY: 0
LLC1 PREFETCH  REQUESTED:     0  ISSUED:     0  USEFUL: 75417  USELESS: 3529052
 USEFUL LOAD PREFETCHES:      75417 PREFETCH ISSUED TO LOWER LEVEL:    3610244  ACCURACY: 2.08897
 TIMELY PREFETCHES:      75417 LATE PREFETCHES: 0 DROPPED PREFETCHES: 0
LLC1 AVERAGE MISS LATENCY: 276.825 cycles
LLC2 TOTAL     ACCESS: 1041556  HIT: 334114  MISS: 707442  HIT %: 32.0784  MISS %: 67.9216  AVERAGE MISS PENALTY: 282.392
LLC2 LOAD      ACCESS: 242218  HIT: 57530  MISS: 184688  HIT %: 23.7513  MISS %: 76.2487  AVERAGE MISS PENALTY: 291.097
LLC2 RFO       ACCESS: 23136  HIT:  6538  MISS: 16598  HIT %: 28.259  MISS %: 71.741  AVERAGE MISS PENALTY: 286.939
LLC2 PREFETCH  ACCESS: 586579  HIT: 117335  MISS: 469244  HIT %: 20.0033  MISS %: 79.9967  AVERAGE MISS PENALTY: 301.018
LLC2 WRITEBACK ACCESS: 189623  HIT: 152711  MISS: 36912  HIT %: 80.534  MISS %: 19.466  AVERAGE MISS PENALTY: 0
LLC2 PREFETCH  REQUESTED:     0  ISSUED:     0  USEFUL: 75922  USELESS: 3674625
 USEFUL LOAD PREFETCHES:      75922 PREFETCH ISSUED TO LOWER LEVEL:    3756720  ACCURACY: 2.02097
 TIMELY PREFETCHES:      75922 LATE PREFETCHES: 0 DROPPED PREFETCHES: 0
LLC2 AVERAGE MISS LATENCY: 282.392 cycles
LLC3 TOTAL     ACCESS: 1041981  HIT: 334934  MISS: 707047  HIT %: 32.144  MISS %: 67.856  AVERAGE MISS PENALTY: 284.414
LLC3 LOAD      ACCESS: 240925  HIT: 56626  MISS: 184299  HIT %: 23.5036  MISS %: 76.4964  AVERAGE MISS PENALTY: 293.186
LLC3 RFO       ACCESS: 23513  HIT:  6821  MISS: 16692  HIT %: 29.0095  MISS %: 70.9905  AVERAGE MISS PENALTY: 289.375
LLC3 PREFETCH  ACCESS: 587832  HIT: 118796  MISS: 469036  HIT %: 20.2092  MISS %: 79.7908  AVERAGE MISS PENALTY: 303.239
LLC3 WRITEBACK ACCESS: 189711  HIT: 152691  MISS: 37020  HIT %: 80.4861  MISS %: 19.5139  AVERAGE MISS PENALTY: 0
LLC3 PREFETCH  REQUESTED:     0  ISSUED:     0  USEFUL: 77005  USELESS: 3669764
 USEFUL LOAD PREFETCHES:      77005 PREFETCH ISSUED TO LOWER LEVEL:    3752519  ACCURACY: 2.05209
 TIMELY PREFETCHES:      77005 LATE PREFETCHES: 0 DROPPED PREFETCHES: 0
LLC3 AVERAGE MISS LATENCY: 284.414 cycles
LLC4 TOTAL     ACCESS: 1044086  HIT: 335801  MISS: 708285  HIT %: 32.1622  MISS %: 67.8378  AVERAGE MISS PENALTY: 278.48
LLC4 LOAD      ACCESS: 248802  HIT: 63444  MISS: 185358  HIT %: 25.4998  MISS %: 74.5002  AVERAGE MISS PENALTY: 292.36
LLC4 RFO       ACCESS: 23633  HIT:  6862  MISS: 16771  HIT %: 29.0357  MISS %: 70.9643  AVERAGE MISS PENALTY: 286.7
LLC4 PREFETCH  ACCESS: 584813  HIT: 114927  MISS: 469886  HIT %: 19.6519  MISS %: 80.3481  AVERAGE MISS PENALTY: 294.207
LLC4 WRITEBACK ACCESS: 186838  HIT: 150568  MISS: 36270  HIT %: 80.5875  MISS %: 19.4125  AVERAGE MISS PENALTY: 0
LLC4 PREFETCH  REQUESTED:     0  ISSUED:     0  USEFUL: 78170  USELESS: 3675564
 USEFUL LOAD PREFETCHES:      78170 PREFETCH ISSUED TO LOWER LEVEL:    3759483  ACCURACY: 2.07928
 TIMELY PREFETCHES:      78170 LATE PREFETCHES: 0 DROPPED PREFETCHES: 0
LLC4 AVERAGE MISS LATENCY: 278.48 cycles
LLC5 TOTAL     ACCESS: 1044090  HIT: 336218  MISS: 707872  HIT %: 32.202  MISS %: 67.798  AVERAGE MISS PENALTY: 279.074
LLC5 LOAD      ACCESS: 240725  HIT: 56889  MISS: 183836  HIT %: 23.6324  MISS %: 76.3676  AVERAGE MISS PENALTY: 293.461
LLC5 RFO       ACCESS: 23746  HIT:  6833  MISS: 16913  HIT %: 28.7754  MISS %: 71.2246  AVERAGE MISS PENALTY: 287.875
LLC5 PREFETCH  ACCESS: 593340  HIT: 122200  MISS: 471140  HIT %: 20.5953  MISS %: 79.4047  AVERAGE MISS PENALTY: 294.459
LLC5 WRITEBACK ACCESS: 186279  HIT: 150296  MISS: 35983  HIT %: 80.6833  MISS %: 19.3167  AVERAGE MISS PENALTY: 0
LLC5 PREFETCH  REQUESTED:     0  ISSUED:     0  USEFUL: 76413  USELESS: 3686967
 USEFUL LOAD PREFETCHES:      76413 PREFETCH ISSUED TO LOWER LEVEL:    3769636  ACCURACY: 2.02707
 TIMELY PREFETCHES:      76413 LATE PREFETCHES: 0 DROPPED PREFETCHES: 0
LLC5 AVERAGE MISS LATENCY: 279.074 cycles
LLC6 TOTAL     ACCESS: 1045913  HIT: 338049  MISS: 707864  HIT %: 32.3209  MISS %: 67.6791  AVERAGE MISS PENALTY: 285.291
LLC6 LOAD      ACCESS: 248227  HIT: 60906  MISS: 187321  HIT %: 24.5364  MISS %: 75.4636  AVERAGE MISS PENALTY: 293.549
LLC6 RFO       ACCESS: 23516  HIT:  6617  MISS: 16899  HIT %: 28.1383  MISS %: 71.8617  AVERAGE MISS PENALTY: 290.748
LLC6 PREFETCH  ACCESS: 584926  HIT: 117765  MISS: 467161  HIT %: 20.1333  MISS %: 79.8667  AVERAGE MISS PENALTY: 304.062
LLC6 WRITEBACK ACCESS: 189244  HIT: 152761  MISS: 36483  HIT %: 80.7217  MISS %: 19.2783  AVERAGE MISS PENALTY: 0
LLC6 PREFETCH  REQUESTED:     0  ISSUED:     0  USEFUL: 77766  USELESS: 3656310
 USEFUL LOAD PREFETCHES:      77766 PREFETCH ISSUED TO LOWER LEVEL:    3740059  ACCURACY: 2.07927
 TIMELY PREFETCHES:      77766 LATE PREFETCHES: 0 DROPPED PREFETCHES: 0
LLC6 AVERAGE MISS LATENCY: 285.291 cycles
LLC7 TOTAL     ACCESS: 1040013  HIT: 333552  MISS: 706461  HIT %: 32.0719  MISS %: 67.9281  AVERAGE MISS PENALTY: 286.651
LLC7 LOAD      ACCESS: 240281  HIT: 56123  MISS: 184158  HIT %: 23.3572  MISS %: 76.6428  AVERAGE MISS PENALTY: 295.341
LLC7 RFO       ACCESS: 23504  HIT:  6696  MISS: 16808  HIT %: 28.4888  MISS %: 71.5112  AVERAGE MISS PENALTY: 291.827
LLC7 PREFETCH  ACCESS: 588581  HIT: 119457  MISS: 469124  HIT %: 20.2958  MISS %: 79.7042  AVERAGE MISS PENALTY: 305.279
LLC7 WRITEBACK ACCESS: 187647  HIT: 151276  MISS: 36371  HIT %: 80.6173  MISS %: 19.3827  AVERAGE MISS PENALTY: 0
LLC7 PREFETCH  REQUESTED:     0  ISSUED:     0  USEFUL: 76320  USELESS: 3675445
 USEFUL LOAD PREFETCHES:      76320 PREFETCH ISSUED TO LOWER LEVEL:    3757875  ACCURACY: 2.03094
 TIMELY PREFETCHES:      76320 LATE PREFETCHES: 0 DROPPED PREFETCHES: 0
LLC7 AVERAGE MISS LATENCY: 286.651 cycles
ROI Average ROB Stall Cycles:	13.7643
ROI Total ROB Stalls Cycles:	989892026
ROI TOTAL ROB counter      :	71917435
ROI Average Load ROB Stall Cycles:	35.976
ROI Total Load ROB Stalls Cycle  :	353175064
ROI Total Load ROB stalls Counter:	9816964
Major fault: 0 Minor fault: 54307








Interconnect Stats 
LINK 0 BW : 0LINK 1 BW : 0LINK 2 BW : 0LINK 3 BW : 0LINK 4 BW : 0LINK 5 BW : 0LINK 6 BW : 0LINK 7 BW : 0
DRAM Statistics
 CHANNEL 0
 RQ ROW_BUFFER_HIT: 2904094  ROW_BUFFER_MISS: 18283223
 DBUS_CONGESTED: 17166416
 WQ ROW_BUFFER_HIT: 303112  ROW_BUFFER_MISS: 4576001  FULL:     0

 CHANNEL 1
 RQ ROW_BUFFER_HIT: 2887626  ROW_BUFFER_MISS: 18461598
 DBUS_CONGESTED: 17166416
 WQ ROW_BUFFER_HIT: 290025  ROW_BUFFER_MISS: 4582851  FULL:     0

 AVG_CONGESTED_CYCLE: 6
DRAM PAGES: 2097152
Allocated PAGES: 434460
L2C destructor called
L1D destructor called
L1I destructor called
STLB destructor called
DTLB destructor called
ITLB destructor called
L2C destructor called
L1D destructor called
L1I destructor called
STLB destructor called
DTLB destructor called
ITLB destructor called
L2C destructor called
L1D destructor called
L1I destructor called
STLB destructor called
DTLB destructor called
ITLB destructor called
L2C destructor called
L1D destructor called
L1I destructor called
STLB destructor called
DTLB destructor called
ITLB destructor called
L2C destructor called
L1D destructor called
L1I destructor called
STLB destructor called
DTLB destructor called
ITLB destructor called
L2C destructor called
L1D destructor called
L1I destructor called
STLB destructor called
DTLB destructor called
ITLB destructor called
L2C destructor called
L1D destructor called
L1I destructor called
STLB destructor called
DTLB destructor called
ITLB destructor called
L2C destructor called
L1D destructor called
L1I destructor called
STLB destructor called
DTLB destructor called
ITLB destructor called
