
*** ChampSim Multicore Out-of-Order Simulator ***

Warmup Instructions: 200000000
Simulation Instructions: 200000000
Number of CPUs: 8
threads:1

L1I Configuration:
L1I_SET:64
L1I_WAY:8
L1I_RQ_SIZE:64
L1I_WQ_SIZE:64
L1I_PQ_SIZE:8
L1I_MSHR_SIZE:8

L1D Configuration:
L1D_SET:64
L1D_WAY:12
L1D_RQ_SIZE:64
L1D_WQ_SIZE:64
L1D_PQ_SIZE:8
L1D_MSHR_SIZE:16

L2C Configuration:
L2C_SET:1024
L2C_WAY:8
L2C_RQ_SIZE:32
L2C_WQ_SIZE:32
L2C_PQ_SIZE:16
L2C_MSHR_SIZE:32

LLC Configuration:
LLC_SET:2048
LLC_WAY:16
LLC SLICES:8
LLC_RQ_SIZE:64
LLC_WQ_SIZE:64
LLC_PQ_SIZE:32
LLC_MSHR_SIZE:64

Interconnect OFF
Attacker deprioritize is: OFF
Off-chip DRAM Size: 8192 MB Channels: 2 Width: 64-bit Data Rate: 3200 MT/s
PAGE SIZE in KB: 4.000000 
PAGE SIZE in MB: 0.003906 
PAGE offset in bits: 12 
CEASER-S_LLC:0
MIRAGE : 1
CEASER_LATENCY:3
REMAP : OFF
Partitions : 1
Multi-Step : OFF
BFS : OFF

CPU 0 runs /home/anubhav/spec_2017/621.wrf_s-8065B.champsimtrace.xz
CPU 1 runs /home/anubhav/spec_2017/621.wrf_s-8065B.champsimtrace.xz
CPU 2 runs /home/anubhav/spec_2017/621.wrf_s-8065B.champsimtrace.xz
CPU 3 runs /home/anubhav/spec_2017/621.wrf_s-8065B.champsimtrace.xz
CPU 4 runs /home/anubhav/spec_2017/621.wrf_s-8065B.champsimtrace.xz
CPU 5 runs /home/anubhav/spec_2017/621.wrf_s-8065B.champsimtrace.xz
CPU 6 runs /home/anubhav/spec_2017/621.wrf_s-8065B.champsimtrace.xz
CPU 7 runs /home/anubhav/spec_2017/621.wrf_s-8065B.champsimtrace.xz
CPU 0 Bimodal branch predictor
Initialize Hawkeye state
Initialize Hawkeye state
Initialize Hawkeye state
Initialize Hawkeye state
Initialize Hawkeye state
Initialize Hawkeye state
Initialize Hawkeye state
Initialize Hawkeye state
CPU 1 Bimodal branch predictor
Initialize Hawkeye state
Initialize Hawkeye state
Initialize Hawkeye state
Initialize Hawkeye state
Initialize Hawkeye state
Initialize Hawkeye state
Initialize Hawkeye state
Initialize Hawkeye state
CPU 2 Bimodal branch predictor
Initialize Hawkeye state
Initialize Hawkeye state
Initialize Hawkeye state
Initialize Hawkeye state
Initialize Hawkeye state
Initialize Hawkeye state
Initialize Hawkeye state
Initialize Hawkeye state
CPU 3 Bimodal branch predictor
Initialize Hawkeye state
Initialize Hawkeye state
Initialize Hawkeye state
Initialize Hawkeye state
Initialize Hawkeye state
Initialize Hawkeye state
Initialize Hawkeye state
Initialize Hawkeye state
CPU 4 Bimodal branch predictor
Initialize Hawkeye state
Initialize Hawkeye state
Initialize Hawkeye state
Initialize Hawkeye state
Initialize Hawkeye state
Initialize Hawkeye state
Initialize Hawkeye state
Initialize Hawkeye state
CPU 5 Bimodal branch predictor
Initialize Hawkeye state
Initialize Hawkeye state
Initialize Hawkeye state
Initialize Hawkeye state
Initialize Hawkeye state
Initialize Hawkeye state
Initialize Hawkeye state
Initialize Hawkeye state
CPU 6 Bimodal branch predictor
Initialize Hawkeye state
Initialize Hawkeye state
Initialize Hawkeye state
Initialize Hawkeye state
Initialize Hawkeye state
Initialize Hawkeye state
Initialize Hawkeye state
Initialize Hawkeye state
CPU 7 Bimodal branch predictor
Initialize Hawkeye state
Initialize Hawkeye state
Initialize Hawkeye state
Initialize Hawkeye state
Initialize Hawkeye state
Initialize Hawkeye state
Initialize Hawkeye state
Initialize Hawkeye state
Heartbeat CPU 4 instructions: 10000001 cycles: 4657137 heartbeat IPC: 2.14724 cumulative IPC: 2.14724 (Simulation time: 0 hr 28 min 24 sec) 
 Total Blocks : 262144 Invalid Blocks : 0
Heartbeat CPU 1 instructions: 10000001 cycles: 4657154 heartbeat IPC: 2.14723 cumulative IPC: 2.14723 (Simulation time: 0 hr 28 min 24 sec) 
 Total Blocks : 262144 Invalid Blocks : 0
Heartbeat CPU 2 instructions: 10000001 cycles: 4657188 heartbeat IPC: 2.14722 cumulative IPC: 2.14722 (Simulation time: 0 hr 28 min 24 sec) 
 Total Blocks : 262144 Invalid Blocks : 0
Heartbeat CPU 3 instructions: 10000001 cycles: 4657234 heartbeat IPC: 2.1472 cumulative IPC: 2.1472 (Simulation time: 0 hr 28 min 24 sec) 
 Total Blocks : 262144 Invalid Blocks : 0
Heartbeat CPU 0 instructions: 10000001 cycles: 4657252 heartbeat IPC: 2.14719 cumulative IPC: 2.14719 (Simulation time: 0 hr 28 min 24 sec) 
 Total Blocks : 262144 Invalid Blocks : 0
Heartbeat CPU 6 instructions: 10000001 cycles: 4657272 heartbeat IPC: 2.14718 cumulative IPC: 2.14718 (Simulation time: 0 hr 28 min 24 sec) 
 Total Blocks : 262144 Invalid Blocks : 0
Heartbeat CPU 5 instructions: 10000001 cycles: 4657398 heartbeat IPC: 2.14712 cumulative IPC: 2.14712 (Simulation time: 0 hr 28 min 25 sec) 
 Total Blocks : 262144 Invalid Blocks : 0
Heartbeat CPU 7 instructions: 10000001 cycles: 4657417 heartbeat IPC: 2.14711 cumulative IPC: 2.14711 (Simulation time: 0 hr 28 min 25 sec) 
 Total Blocks : 262144 Invalid Blocks : 0
Heartbeat CPU 4 instructions: 20000000 cycles: 9126487 heartbeat IPC: 2.23746 cumulative IPC: 2.19142 (Simulation time: 0 hr 50 min 5 sec) 
 Total Blocks : 262144 Invalid Blocks : 0
Heartbeat CPU 2 instructions: 20000000 cycles: 9126516 heartbeat IPC: 2.23747 cumulative IPC: 2.19142 (Simulation time: 0 hr 50 min 5 sec) 
 Total Blocks : 262144 Invalid Blocks : 0
Heartbeat CPU 1 instructions: 20000000 cycles: 9126519 heartbeat IPC: 2.23745 cumulative IPC: 2.19142 (Simulation time: 0 hr 50 min 5 sec) 
 Total Blocks : 262144 Invalid Blocks : 0
Heartbeat CPU 3 instructions: 20000000 cycles: 9126587 heartbeat IPC: 2.23746 cumulative IPC: 2.1914 (Simulation time: 0 hr 50 min 5 sec) 
 Total Blocks : 262144 Invalid Blocks : 0
Heartbeat CPU 6 instructions: 20000000 cycles: 9126604 heartbeat IPC: 2.23747 cumulative IPC: 2.1914 (Simulation time: 0 hr 50 min 5 sec) 
 Total Blocks : 262144 Invalid Blocks : 0
Heartbeat CPU 0 instructions: 20000000 cycles: 9126621 heartbeat IPC: 2.23745 cumulative IPC: 2.19139 (Simulation time: 0 hr 50 min 5 sec) 
 Total Blocks : 262144 Invalid Blocks : 0
Heartbeat CPU 5 instructions: 20000000 cycles: 9126771 heartbeat IPC: 2.23745 cumulative IPC: 2.19136 (Simulation time: 0 hr 50 min 5 sec) 
 Total Blocks : 262144 Invalid Blocks : 0
Heartbeat CPU 7 instructions: 20000000 cycles: 9126797 heartbeat IPC: 2.23745 cumulative IPC: 2.19135 (Simulation time: 0 hr 50 min 5 sec) 
 Total Blocks : 262144 Invalid Blocks : 0
Heartbeat CPU 6 instructions: 30000000 cycles: 13381463 heartbeat IPC: 2.35025 cumulative IPC: 2.24191 (Simulation time: 1 hr 13 min 34 sec) 
 Total Blocks : 262144 Invalid Blocks : 0
Heartbeat CPU 1 instructions: 30000000 cycles: 13381544 heartbeat IPC: 2.35016 cumulative IPC: 2.24189 (Simulation time: 1 hr 13 min 34 sec) 
 Total Blocks : 262144 Invalid Blocks : 0
Heartbeat CPU 2 instructions: 30000000 cycles: 13381566 heartbeat IPC: 2.35015 cumulative IPC: 2.24189 (Simulation time: 1 hr 13 min 34 sec) 
 Total Blocks : 262144 Invalid Blocks : 0
Heartbeat CPU 4 instructions: 30000000 cycles: 13381616 heartbeat IPC: 2.35011 cumulative IPC: 2.24188 (Simulation time: 1 hr 13 min 34 sec) 
 Total Blocks : 262144 Invalid Blocks : 0
Heartbeat CPU 3 instructions: 30000000 cycles: 13381707 heartbeat IPC: 2.35011 cumulative IPC: 2.24187 (Simulation time: 1 hr 13 min 34 sec) 
 Total Blocks : 262144 Invalid Blocks : 0
Heartbeat CPU 0 instructions: 30000000 cycles: 13381789 heartbeat IPC: 2.35008 cumulative IPC: 2.24185 (Simulation time: 1 hr 13 min 34 sec) 
 Total Blocks : 262144 Invalid Blocks : 0
Heartbeat CPU 5 instructions: 30000000 cycles: 13381881 heartbeat IPC: 2.35012 cumulative IPC: 2.24184 (Simulation time: 1 hr 13 min 34 sec) 
 Total Blocks : 262144 Invalid Blocks : 0
Heartbeat CPU 7 instructions: 30000000 cycles: 13382119 heartbeat IPC: 2.35 cumulative IPC: 2.2418 (Simulation time: 1 hr 13 min 34 sec) 
 Total Blocks : 262144 Invalid Blocks : 0
Heartbeat CPU 6 instructions: 40000003 cycles: 17954693 heartbeat IPC: 2.18664 cumulative IPC: 2.22783 (Simulation time: 1 hr 36 min 1 sec) 
 Total Blocks : 262144 Invalid Blocks : 0
Heartbeat CPU 1 instructions: 40000003 cycles: 17954721 heartbeat IPC: 2.18666 cumulative IPC: 2.22783 (Simulation time: 1 hr 36 min 1 sec) 
 Total Blocks : 262144 Invalid Blocks : 0
Heartbeat CPU 2 instructions: 40000003 cycles: 17954750 heartbeat IPC: 2.18666 cumulative IPC: 2.22782 (Simulation time: 1 hr 36 min 1 sec) 
 Total Blocks : 262144 Invalid Blocks : 0
Heartbeat CPU 4 instructions: 40000003 cycles: 17954821 heartbeat IPC: 2.18665 cumulative IPC: 2.22781 (Simulation time: 1 hr 36 min 1 sec) 
 Total Blocks : 262144 Invalid Blocks : 0
Heartbeat CPU 3 instructions: 40000003 cycles: 17954913 heartbeat IPC: 2.18665 cumulative IPC: 2.2278 (Simulation time: 1 hr 36 min 1 sec) 
 Total Blocks : 262144 Invalid Blocks : 0
Heartbeat CPU 0 instructions: 40000003 cycles: 17954989 heartbeat IPC: 2.18665 cumulative IPC: 2.22779 (Simulation time: 1 hr 36 min 1 sec) 
 Total Blocks : 262144 Invalid Blocks : 0
Heartbeat CPU 5 instructions: 40000003 cycles: 17955089 heartbeat IPC: 2.18665 cumulative IPC: 2.22778 (Simulation time: 1 hr 36 min 1 sec) 
 Total Blocks : 262144 Invalid Blocks : 0
Heartbeat CPU 7 instructions: 40000003 cycles: 17955368 heartbeat IPC: 2.18663 cumulative IPC: 2.22775 (Simulation time: 1 hr 36 min 2 sec) 
 Total Blocks : 262144 Invalid Blocks : 0
Heartbeat CPU 6 instructions: 50000002 cycles: 22293796 heartbeat IPC: 2.30462 cumulative IPC: 2.24278 (Simulation time: 1 hr 57 min 49 sec) 
 Total Blocks : 262144 Invalid Blocks : 0
Heartbeat CPU 1 instructions: 50000002 cycles: 22293803 heartbeat IPC: 2.30463 cumulative IPC: 2.24278 (Simulation time: 1 hr 57 min 49 sec) 
 Total Blocks : 262144 Invalid Blocks : 0
Heartbeat CPU 2 instructions: 50000002 cycles: 22293805 heartbeat IPC: 2.30465 cumulative IPC: 2.24278 (Simulation time: 1 hr 57 min 49 sec) 
 Total Blocks : 262144 Invalid Blocks : 0
Heartbeat CPU 4 instructions: 50000002 cycles: 22293897 heartbeat IPC: 2.30464 cumulative IPC: 2.24277 (Simulation time: 1 hr 57 min 49 sec) 
 Total Blocks : 262144 Invalid Blocks : 0
Heartbeat CPU 0 instructions: 50000002 cycles: 22294005 heartbeat IPC: 2.30467 cumulative IPC: 2.24276 (Simulation time: 1 hr 57 min 49 sec) 
 Total Blocks : 262144 Invalid Blocks : 0
Heartbeat CPU 3 instructions: 50000002 cycles: 22294007 heartbeat IPC: 2.30463 cumulative IPC: 2.24276 (Simulation time: 1 hr 57 min 49 sec) 
 Total Blocks : 262144 Invalid Blocks : 0
Heartbeat CPU 5 instructions: 50000002 cycles: 22294130 heartbeat IPC: 2.30466 cumulative IPC: 2.24274 (Simulation time: 1 hr 57 min 49 sec) 
 Total Blocks : 262144 Invalid Blocks : 0
Heartbeat CPU 7 instructions: 50000002 cycles: 22294500 heartbeat IPC: 2.30461 cumulative IPC: 2.24271 (Simulation time: 1 hr 57 min 49 sec) 
 Total Blocks : 262144 Invalid Blocks : 0
Heartbeat CPU 2 instructions: 60000002 cycles: 26843312 heartbeat IPC: 2.19804 cumulative IPC: 2.23519 (Simulation time: 2 hr 19 min 40 sec) 
 Total Blocks : 262144 Invalid Blocks : 0
Heartbeat CPU 1 instructions: 60000002 cycles: 26843322 heartbeat IPC: 2.19803 cumulative IPC: 2.23519 (Simulation time: 2 hr 19 min 40 sec) 
 Total Blocks : 262144 Invalid Blocks : 0
Heartbeat CPU 6 instructions: 60000002 cycles: 26843332 heartbeat IPC: 2.19803 cumulative IPC: 2.23519 (Simulation time: 2 hr 19 min 40 sec) 
 Total Blocks : 262144 Invalid Blocks : 0
Heartbeat CPU 4 instructions: 60000002 cycles: 26843401 heartbeat IPC: 2.19804 cumulative IPC: 2.23519 (Simulation time: 2 hr 19 min 40 sec) 
 Total Blocks : 262144 Invalid Blocks : 0
Heartbeat CPU 0 instructions: 60000002 cycles: 26843503 heartbeat IPC: 2.19804 cumulative IPC: 2.23518 (Simulation time: 2 hr 19 min 40 sec) 
 Total Blocks : 262144 Invalid Blocks : 0
Heartbeat CPU 3 instructions: 60000002 cycles: 26843520 heartbeat IPC: 2.19804 cumulative IPC: 2.23518 (Simulation time: 2 hr 19 min 40 sec) 
 Total Blocks : 262144 Invalid Blocks : 0
Heartbeat CPU 5 instructions: 60000002 cycles: 26843675 heartbeat IPC: 2.19802 cumulative IPC: 2.23516 (Simulation time: 2 hr 19 min 40 sec) 
 Total Blocks : 262144 Invalid Blocks : 0
Heartbeat CPU 7 instructions: 60000002 cycles: 26844112 heartbeat IPC: 2.19799 cumulative IPC: 2.23513 (Simulation time: 2 hr 19 min 40 sec) 
 Total Blocks : 262144 Invalid Blocks : 0
Heartbeat CPU 2 instructions: 70000002 cycles: 31138067 heartbeat IPC: 2.32842 cumulative IPC: 2.24805 (Simulation time: 2 hr 41 min 19 sec) 
 Total Blocks : 262144 Invalid Blocks : 0
Heartbeat CPU 6 instructions: 70000002 cycles: 31138078 heartbeat IPC: 2.32843 cumulative IPC: 2.24805 (Simulation time: 2 hr 41 min 19 sec) 
 Total Blocks : 262144 Invalid Blocks : 0
Heartbeat CPU 1 instructions: 70000002 cycles: 31138101 heartbeat IPC: 2.32841 cumulative IPC: 2.24805 (Simulation time: 2 hr 41 min 20 sec) 
 Total Blocks : 262144 Invalid Blocks : 0
Heartbeat CPU 4 instructions: 70000002 cycles: 31138146 heartbeat IPC: 2.32843 cumulative IPC: 2.24805 (Simulation time: 2 hr 41 min 20 sec) 
 Total Blocks : 262144 Invalid Blocks : 0
Heartbeat CPU 3 instructions: 70000002 cycles: 31138246 heartbeat IPC: 2.32844 cumulative IPC: 2.24804 (Simulation time: 2 hr 41 min 20 sec) 
 Total Blocks : 262144 Invalid Blocks : 0
Heartbeat CPU 0 instructions: 70000002 cycles: 31138251 heartbeat IPC: 2.32843 cumulative IPC: 2.24804 (Simulation time: 2 hr 41 min 20 sec) 
 Total Blocks : 262144 Invalid Blocks : 0
Heartbeat CPU 5 instructions: 70000002 cycles: 31138428 heartbeat IPC: 2.32842 cumulative IPC: 2.24803 (Simulation time: 2 hr 41 min 20 sec) 
 Total Blocks : 262144 Invalid Blocks : 0
Heartbeat CPU 7 instructions: 70000002 cycles: 31138893 heartbeat IPC: 2.32841 cumulative IPC: 2.24799 (Simulation time: 2 hr 41 min 20 sec) 
 Total Blocks : 262144 Invalid Blocks : 0
Heartbeat CPU 2 instructions: 80000000 cycles: 35729209 heartbeat IPC: 2.17811 cumulative IPC: 2.23906 (Simulation time: 3 hr 2 min 57 sec) 
 Total Blocks : 262144 Invalid Blocks : 0
Heartbeat CPU 6 instructions: 80000000 cycles: 35729297 heartbeat IPC: 2.17807 cumulative IPC: 2.23906 (Simulation time: 3 hr 2 min 57 sec) 
 Total Blocks : 262144 Invalid Blocks : 0
Heartbeat CPU 1 instructions: 80000000 cycles: 35729298 heartbeat IPC: 2.17808 cumulative IPC: 2.23906 (Simulation time: 3 hr 2 min 57 sec) 
 Total Blocks : 262144 Invalid Blocks : 0
Heartbeat CPU 4 instructions: 80000000 cycles: 35729310 heartbeat IPC: 2.1781 cumulative IPC: 2.23906 (Simulation time: 3 hr 2 min 57 sec) 
 Total Blocks : 262144 Invalid Blocks : 0
Heartbeat CPU 0 instructions: 80000000 cycles: 35729418 heartbeat IPC: 2.1781 cumulative IPC: 2.23905 (Simulation time: 3 hr 2 min 57 sec) 
 Total Blocks : 262144 Invalid Blocks : 0
Heartbeat CPU 3 instructions: 80000000 cycles: 35729428 heartbeat IPC: 2.17809 cumulative IPC: 2.23905 (Simulation time: 3 hr 2 min 57 sec) 
 Total Blocks : 262144 Invalid Blocks : 0
Heartbeat CPU 5 instructions: 80000000 cycles: 35729624 heartbeat IPC: 2.17808 cumulative IPC: 2.23904 (Simulation time: 3 hr 2 min 57 sec) 
 Total Blocks : 262144 Invalid Blocks : 0
Heartbeat CPU 7 instructions: 80000000 cycles: 35730092 heartbeat IPC: 2.17808 cumulative IPC: 2.23901 (Simulation time: 3 hr 2 min 57 sec) 
 Total Blocks : 262144 Invalid Blocks : 0
Heartbeat CPU 2 instructions: 90000003 cycles: 40047317 heartbeat IPC: 2.31583 cumulative IPC: 2.24734 (Simulation time: 3 hr 24 min 25 sec) 
 Total Blocks : 262144 Invalid Blocks : 0
Heartbeat CPU 1 instructions: 90000003 cycles: 40047399 heartbeat IPC: 2.31583 cumulative IPC: 2.24734 (Simulation time: 3 hr 24 min 25 sec) 
 Total Blocks : 262144 Invalid Blocks : 0
Heartbeat CPU 6 instructions: 90000003 cycles: 40047419 heartbeat IPC: 2.31582 cumulative IPC: 2.24734 (Simulation time: 3 hr 24 min 25 sec) 
 Total Blocks : 262144 Invalid Blocks : 0
Heartbeat CPU 4 instructions: 90000003 cycles: 40047447 heartbeat IPC: 2.31581 cumulative IPC: 2.24733 (Simulation time: 3 hr 24 min 25 sec) 
 Total Blocks : 262144 Invalid Blocks : 0
Heartbeat CPU 0 instructions: 90000003 cycles: 40047515 heartbeat IPC: 2.31584 cumulative IPC: 2.24733 (Simulation time: 3 hr 24 min 25 sec) 
 Total Blocks : 262144 Invalid Blocks : 0
Heartbeat CPU 3 instructions: 90000003 cycles: 40047524 heartbeat IPC: 2.31584 cumulative IPC: 2.24733 (Simulation time: 3 hr 24 min 25 sec) 
 Total Blocks : 262144 Invalid Blocks : 0
Heartbeat CPU 5 instructions: 90000003 cycles: 40047733 heartbeat IPC: 2.31583 cumulative IPC: 2.24732 (Simulation time: 3 hr 24 min 25 sec) 
 Total Blocks : 262144 Invalid Blocks : 0
Heartbeat CPU 7 instructions: 90000003 cycles: 40048208 heartbeat IPC: 2.31583 cumulative IPC: 2.24729 (Simulation time: 3 hr 24 min 25 sec) 
 Total Blocks : 262144 Invalid Blocks : 0
Heartbeat CPU 2 instructions: 100000001 cycles: 44615281 heartbeat IPC: 2.18916 cumulative IPC: 2.24138 (Simulation time: 3 hr 46 min 33 sec) 
 Total Blocks : 262144 Invalid Blocks : 0
Heartbeat CPU 4 instructions: 100000001 cycles: 44615439 heartbeat IPC: 2.18915 cumulative IPC: 2.24138 (Simulation time: 3 hr 46 min 33 sec) 
 Total Blocks : 262144 Invalid Blocks : 0
Heartbeat CPU 0 instructions: 100000001 cycles: 44615458 heartbeat IPC: 2.18917 cumulative IPC: 2.24138 (Simulation time: 3 hr 46 min 33 sec) 
 Total Blocks : 262144 Invalid Blocks : 0
Heartbeat CPU 6 instructions: 100000001 cycles: 44615468 heartbeat IPC: 2.18912 cumulative IPC: 2.24138 (Simulation time: 3 hr 46 min 33 sec) 
 Total Blocks : 262144 Invalid Blocks : 0
Heartbeat CPU 1 instructions: 100000001 cycles: 44615470 heartbeat IPC: 2.18911 cumulative IPC: 2.24137 (Simulation time: 3 hr 46 min 33 sec) 
 Total Blocks : 262144 Invalid Blocks : 0
Heartbeat CPU 3 instructions: 100000001 cycles: 44615572 heartbeat IPC: 2.18912 cumulative IPC: 2.24137 (Simulation time: 3 hr 46 min 33 sec) 
 Total Blocks : 262144 Invalid Blocks : 0
Heartbeat CPU 5 instructions: 100000001 cycles: 44615761 heartbeat IPC: 2.18913 cumulative IPC: 2.24136 (Simulation time: 3 hr 46 min 33 sec) 
 Total Blocks : 262144 Invalid Blocks : 0
Heartbeat CPU 7 instructions: 100000001 cycles: 44616229 heartbeat IPC: 2.18913 cumulative IPC: 2.24134 (Simulation time: 3 hr 46 min 34 sec) 
 Total Blocks : 262144 Invalid Blocks : 0
Heartbeat CPU 2 instructions: 110000000 cycles: 48956695 heartbeat IPC: 2.3034 cumulative IPC: 2.24688 (Simulation time: 4 hr 6 min 44 sec) 
 Total Blocks : 262144 Invalid Blocks : 0
Heartbeat CPU 4 instructions: 110000000 cycles: 48956849 heartbeat IPC: 2.3034 cumulative IPC: 2.24688 (Simulation time: 4 hr 6 min 44 sec) 
 Total Blocks : 262144 Invalid Blocks : 0
Heartbeat CPU 0 instructions: 110000000 cycles: 48956884 heartbeat IPC: 2.30339 cumulative IPC: 2.24688 (Simulation time: 4 hr 6 min 44 sec) 
 Total Blocks : 262144 Invalid Blocks : 0
Heartbeat CPU 1 instructions: 110000000 cycles: 48956886 heartbeat IPC: 2.3034 cumulative IPC: 2.24688 (Simulation time: 4 hr 6 min 44 sec) 
 Total Blocks : 262144 Invalid Blocks : 0
Heartbeat CPU 6 instructions: 110000000 cycles: 48956895 heartbeat IPC: 2.30339 cumulative IPC: 2.24687 (Simulation time: 4 hr 6 min 44 sec) 
 Total Blocks : 262144 Invalid Blocks : 0
Heartbeat CPU 3 instructions: 110000000 cycles: 48956990 heartbeat IPC: 2.30339 cumulative IPC: 2.24687 (Simulation time: 4 hr 6 min 44 sec) 
 Total Blocks : 262144 Invalid Blocks : 0
Heartbeat CPU 5 instructions: 110000000 cycles: 48957181 heartbeat IPC: 2.30339 cumulative IPC: 2.24686 (Simulation time: 4 hr 6 min 44 sec) 
 Total Blocks : 262144 Invalid Blocks : 0
Heartbeat CPU 7 instructions: 110000000 cycles: 48957631 heartbeat IPC: 2.3034 cumulative IPC: 2.24684 (Simulation time: 4 hr 6 min 44 sec) 
 Total Blocks : 262144 Invalid Blocks : 0
Heartbeat CPU 2 instructions: 120000001 cycles: 53642134 heartbeat IPC: 2.13427 cumulative IPC: 2.23705 (Simulation time: 4 hr 28 min 46 sec) 
 Total Blocks : 262144 Invalid Blocks : 0
Heartbeat CPU 6 instructions: 120000001 cycles: 53642230 heartbeat IPC: 2.13432 cumulative IPC: 2.23704 (Simulation time: 4 hr 28 min 46 sec) 
 Total Blocks : 262144 Invalid Blocks : 0
Heartbeat CPU 4 instructions: 120000001 cycles: 53642234 heartbeat IPC: 2.1343 cumulative IPC: 2.23704 (Simulation time: 4 hr 28 min 46 sec) 
 Total Blocks : 262144 Invalid Blocks : 0
Heartbeat CPU 1 instructions: 120000001 cycles: 53642256 heartbeat IPC: 2.1343 cumulative IPC: 2.23704 (Simulation time: 4 hr 28 min 46 sec) 
 Total Blocks : 262144 Invalid Blocks : 0
Heartbeat CPU 0 instructions: 120000001 cycles: 53642280 heartbeat IPC: 2.13429 cumulative IPC: 2.23704 (Simulation time: 4 hr 28 min 46 sec) 
 Total Blocks : 262144 Invalid Blocks : 0
Heartbeat CPU 3 instructions: 120000001 cycles: 53642411 heartbeat IPC: 2.13428 cumulative IPC: 2.23704 (Simulation time: 4 hr 28 min 46 sec) 
 Total Blocks : 262144 Invalid Blocks : 0
Heartbeat CPU 5 instructions: 120000001 cycles: 53642524 heartbeat IPC: 2.13432 cumulative IPC: 2.23703 (Simulation time: 4 hr 28 min 46 sec) 
 Total Blocks : 262144 Invalid Blocks : 0
Heartbeat CPU 7 instructions: 120000001 cycles: 53643046 heartbeat IPC: 2.13428 cumulative IPC: 2.23701 (Simulation time: 4 hr 28 min 46 sec) 
 Total Blocks : 262144 Invalid Blocks : 0
Heartbeat CPU 2 instructions: 130000001 cycles: 58574241 heartbeat IPC: 2.02753 cumulative IPC: 2.21941 (Simulation time: 4 hr 48 min 56 sec) 
 Total Blocks : 262144 Invalid Blocks : 0
Heartbeat CPU 6 instructions: 130000001 cycles: 58574333 heartbeat IPC: 2.02753 cumulative IPC: 2.2194 (Simulation time: 4 hr 48 min 56 sec) 
 Total Blocks : 262144 Invalid Blocks : 0
Heartbeat CPU 4 instructions: 130000001 cycles: 58574334 heartbeat IPC: 2.02753 cumulative IPC: 2.2194 (Simulation time: 4 hr 48 min 56 sec) 
 Total Blocks : 262144 Invalid Blocks : 0
Heartbeat CPU 1 instructions: 130000001 cycles: 58574356 heartbeat IPC: 2.02753 cumulative IPC: 2.2194 (Simulation time: 4 hr 48 min 56 sec) 
 Total Blocks : 262144 Invalid Blocks : 0
Heartbeat CPU 0 instructions: 130000001 cycles: 58574378 heartbeat IPC: 2.02753 cumulative IPC: 2.2194 (Simulation time: 4 hr 48 min 56 sec) 
 Total Blocks : 262144 Invalid Blocks : 0
Heartbeat CPU 3 instructions: 130000001 cycles: 58574510 heartbeat IPC: 2.02753 cumulative IPC: 2.2194 (Simulation time: 4 hr 48 min 56 sec) 
 Total Blocks : 262144 Invalid Blocks : 0
Heartbeat CPU 5 instructions: 130000001 cycles: 58574623 heartbeat IPC: 2.02753 cumulative IPC: 2.21939 (Simulation time: 4 hr 48 min 56 sec) 
 Total Blocks : 262144 Invalid Blocks : 0
Heartbeat CPU 7 instructions: 130000001 cycles: 58575151 heartbeat IPC: 2.02753 cumulative IPC: 2.21937 (Simulation time: 4 hr 48 min 56 sec) 
 Total Blocks : 262144 Invalid Blocks : 0
Heartbeat CPU 2 instructions: 140000000 cycles: 63514127 heartbeat IPC: 2.02434 cumulative IPC: 2.20423 (Simulation time: 5 hr 8 min 52 sec) 
 Total Blocks : 262144 Invalid Blocks : 0
Heartbeat CPU 6 instructions: 140000000 cycles: 63514219 heartbeat IPC: 2.02434 cumulative IPC: 2.20423 (Simulation time: 5 hr 8 min 52 sec) 
 Total Blocks : 262144 Invalid Blocks : 0
Heartbeat CPU 4 instructions: 140000000 cycles: 63514220 heartbeat IPC: 2.02434 cumulative IPC: 2.20423 (Simulation time: 5 hr 8 min 52 sec) 
 Total Blocks : 262144 Invalid Blocks : 0
Heartbeat CPU 1 instructions: 140000000 cycles: 63514241 heartbeat IPC: 2.02434 cumulative IPC: 2.20423 (Simulation time: 5 hr 8 min 52 sec) 
 Total Blocks : 262144 Invalid Blocks : 0
Heartbeat CPU 0 instructions: 140000000 cycles: 63514263 heartbeat IPC: 2.02434 cumulative IPC: 2.20423 (Simulation time: 5 hr 8 min 52 sec) 
 Total Blocks : 262144 Invalid Blocks : 0
Heartbeat CPU 3 instructions: 140000000 cycles: 63514396 heartbeat IPC: 2.02434 cumulative IPC: 2.20422 (Simulation time: 5 hr 8 min 52 sec) 
 Total Blocks : 262144 Invalid Blocks : 0
Heartbeat CPU 5 instructions: 140000000 cycles: 63514506 heartbeat IPC: 2.02434 cumulative IPC: 2.20422 (Simulation time: 5 hr 8 min 52 sec) 
 Total Blocks : 262144 Invalid Blocks : 0
Heartbeat CPU 7 instructions: 140000000 cycles: 63515034 heartbeat IPC: 2.02434 cumulative IPC: 2.2042 (Simulation time: 5 hr 8 min 52 sec) 
 Total Blocks : 262144 Invalid Blocks : 0
Heartbeat CPU 6 instructions: 150000002 cycles: 68424283 heartbeat IPC: 2.03663 cumulative IPC: 2.1922 (Simulation time: 5 hr 31 min 24 sec) 
 Total Blocks : 262144 Invalid Blocks : 0
Heartbeat CPU 2 instructions: 150000002 cycles: 68424361 heartbeat IPC: 2.03656 cumulative IPC: 2.1922 (Simulation time: 5 hr 31 min 25 sec) 
 Total Blocks : 262144 Invalid Blocks : 0
Heartbeat CPU 4 instructions: 150000002 cycles: 68424383 heartbeat IPC: 2.03659 cumulative IPC: 2.1922 (Simulation time: 5 hr 31 min 25 sec) 
 Total Blocks : 262144 Invalid Blocks : 0
Heartbeat CPU 1 instructions: 150000002 cycles: 68424443 heartbeat IPC: 2.03658 cumulative IPC: 2.1922 (Simulation time: 5 hr 31 min 25 sec) 
 Total Blocks : 262144 Invalid Blocks : 0
Heartbeat CPU 0 instructions: 150000002 cycles: 68424451 heartbeat IPC: 2.03658 cumulative IPC: 2.1922 (Simulation time: 5 hr 31 min 25 sec) 
 Total Blocks : 262144 Invalid Blocks : 0
Heartbeat CPU 3 instructions: 150000002 cycles: 68424552 heartbeat IPC: 2.0366 cumulative IPC: 2.1922 (Simulation time: 5 hr 31 min 25 sec) 
 Total Blocks : 262144 Invalid Blocks : 0
Heartbeat CPU 5 instructions: 150000002 cycles: 68424705 heartbeat IPC: 2.03658 cumulative IPC: 2.19219 (Simulation time: 5 hr 31 min 25 sec) 
 Total Blocks : 262144 Invalid Blocks : 0
Heartbeat CPU 7 instructions: 150000002 cycles: 68425174 heartbeat IPC: 2.0366 cumulative IPC: 2.19218 (Simulation time: 5 hr 31 min 25 sec) 
 Total Blocks : 262144 Invalid Blocks : 0
Heartbeat CPU 4 instructions: 160000000 cycles: 72979005 heartbeat IPC: 2.19557 cumulative IPC: 2.19241 (Simulation time: 5 hr 50 min 58 sec) 
 Total Blocks : 262144 Invalid Blocks : 0
Heartbeat CPU 6 instructions: 160000000 cycles: 72979016 heartbeat IPC: 2.19552 cumulative IPC: 2.19241 (Simulation time: 5 hr 50 min 58 sec) 
 Total Blocks : 262144 Invalid Blocks : 0
Heartbeat CPU 2 instructions: 160000000 cycles: 72979017 heartbeat IPC: 2.19555 cumulative IPC: 2.19241 (Simulation time: 5 hr 50 min 58 sec) 
 Total Blocks : 262144 Invalid Blocks : 0
Heartbeat CPU 1 instructions: 160000000 cycles: 72979063 heartbeat IPC: 2.19557 cumulative IPC: 2.19241 (Simulation time: 5 hr 50 min 58 sec) 
 Total Blocks : 262144 Invalid Blocks : 0
Heartbeat CPU 0 instructions: 160000000 cycles: 72979077 heartbeat IPC: 2.19557 cumulative IPC: 2.19241 (Simulation time: 5 hr 50 min 58 sec) 
 Total Blocks : 262144 Invalid Blocks : 0
Heartbeat CPU 3 instructions: 160000000 cycles: 72979243 heartbeat IPC: 2.19554 cumulative IPC: 2.1924 (Simulation time: 5 hr 50 min 58 sec) 
 Total Blocks : 262144 Invalid Blocks : 0
Heartbeat CPU 5 instructions: 160000000 cycles: 72979402 heartbeat IPC: 2.19554 cumulative IPC: 2.1924 (Simulation time: 5 hr 50 min 59 sec) 
 Total Blocks : 262144 Invalid Blocks : 0
Heartbeat CPU 7 instructions: 160000000 cycles: 72979881 heartbeat IPC: 2.19553 cumulative IPC: 2.19238 (Simulation time: 5 hr 50 min 59 sec) 
 Total Blocks : 262144 Invalid Blocks : 0
Heartbeat CPU 2 instructions: 170000003 cycles: 77839079 heartbeat IPC: 2.05759 cumulative IPC: 2.18399 (Simulation time: 6 hr 19 min 9 sec) 
 Total Blocks : 262144 Invalid Blocks : 0
Heartbeat CPU 0 instructions: 170000003 cycles: 77839160 heartbeat IPC: 2.05758 cumulative IPC: 2.18399 (Simulation time: 6 hr 19 min 9 sec) 
 Total Blocks : 262144 Invalid Blocks : 0
Heartbeat CPU 4 instructions: 170000003 cycles: 77839211 heartbeat IPC: 2.05753 cumulative IPC: 2.18399 (Simulation time: 6 hr 19 min 9 sec) 
 Total Blocks : 262144 Invalid Blocks : 0
Heartbeat CPU 1 instructions: 170000003 cycles: 77839231 heartbeat IPC: 2.05754 cumulative IPC: 2.18399 (Simulation time: 6 hr 19 min 9 sec) 
 Total Blocks : 262144 Invalid Blocks : 0
Heartbeat CPU 3 instructions: 170000003 cycles: 77839335 heartbeat IPC: 2.05757 cumulative IPC: 2.18399 (Simulation time: 6 hr 19 min 9 sec) 
 Total Blocks : 262144 Invalid Blocks : 0
Heartbeat CPU 6 instructions: 170000003 cycles: 77839344 heartbeat IPC: 2.05747 cumulative IPC: 2.18399 (Simulation time: 6 hr 19 min 9 sec) 
 Total Blocks : 262144 Invalid Blocks : 0
Heartbeat CPU 5 instructions: 170000003 cycles: 77839751 heartbeat IPC: 2.05747 cumulative IPC: 2.18397 (Simulation time: 6 hr 19 min 9 sec) 
 Total Blocks : 262144 Invalid Blocks : 0
Heartbeat CPU 7 instructions: 170000003 cycles: 77840180 heartbeat IPC: 2.05749 cumulative IPC: 2.18396 (Simulation time: 6 hr 19 min 9 sec) 
 Total Blocks : 262144 Invalid Blocks : 0
Heartbeat CPU 2 instructions: 180000003 cycles: 82633567 heartbeat IPC: 2.08573 cumulative IPC: 2.17829 (Simulation time: 6 hr 41 min 5 sec) 
 Total Blocks : 262144 Invalid Blocks : 0
Heartbeat CPU 0 instructions: 180000003 cycles: 82633650 heartbeat IPC: 2.08573 cumulative IPC: 2.17829 (Simulation time: 6 hr 41 min 5 sec) 
 Total Blocks : 262144 Invalid Blocks : 0
Heartbeat CPU 4 instructions: 180000003 cycles: 82633687 heartbeat IPC: 2.08573 cumulative IPC: 2.17829 (Simulation time: 6 hr 41 min 6 sec) 
 Total Blocks : 262144 Invalid Blocks : 0
Heartbeat CPU 1 instructions: 180000003 cycles: 82633708 heartbeat IPC: 2.08573 cumulative IPC: 2.17829 (Simulation time: 6 hr 41 min 6 sec) 
 Total Blocks : 262144 Invalid Blocks : 0
Heartbeat CPU 3 instructions: 180000003 cycles: 82633824 heartbeat IPC: 2.08573 cumulative IPC: 2.17828 (Simulation time: 6 hr 41 min 6 sec) 
 Total Blocks : 262144 Invalid Blocks : 0
Heartbeat CPU 6 instructions: 180000003 cycles: 82633831 heartbeat IPC: 2.08573 cumulative IPC: 2.17828 (Simulation time: 6 hr 41 min 6 sec) 
 Total Blocks : 262144 Invalid Blocks : 0
Heartbeat CPU 5 instructions: 180000003 cycles: 82634257 heartbeat IPC: 2.08572 cumulative IPC: 2.17827 (Simulation time: 6 hr 41 min 6 sec) 
 Total Blocks : 262144 Invalid Blocks : 0
Heartbeat CPU 7 instructions: 180000003 cycles: 82634651 heartbeat IPC: 2.08574 cumulative IPC: 2.17826 (Simulation time: 6 hr 41 min 6 sec) 
 Total Blocks : 262144 Invalid Blocks : 0
Heartbeat CPU 2 instructions: 190000000 cycles: 87505972 heartbeat IPC: 2.05237 cumulative IPC: 2.17128 (Simulation time: 7 hr 2 min 16 sec) 
 Total Blocks : 262144 Invalid Blocks : 0
Heartbeat CPU 0 instructions: 190000000 cycles: 87506097 heartbeat IPC: 2.05236 cumulative IPC: 2.17128 (Simulation time: 7 hr 2 min 16 sec) 
 Total Blocks : 262144 Invalid Blocks : 0
Heartbeat CPU 4 instructions: 190000000 cycles: 87506137 heartbeat IPC: 2.05236 cumulative IPC: 2.17128 (Simulation time: 7 hr 2 min 16 sec) 
 Total Blocks : 262144 Invalid Blocks : 0
Heartbeat CPU 1 instructions: 190000000 cycles: 87506177 heartbeat IPC: 2.05235 cumulative IPC: 2.17128 (Simulation time: 7 hr 2 min 16 sec) 
 Total Blocks : 262144 Invalid Blocks : 0
Heartbeat CPU 3 instructions: 190000000 cycles: 87506245 heartbeat IPC: 2.05237 cumulative IPC: 2.17127 (Simulation time: 7 hr 2 min 16 sec) 
 Total Blocks : 262144 Invalid Blocks : 0
Heartbeat CPU 6 instructions: 190000000 cycles: 87506278 heartbeat IPC: 2.05236 cumulative IPC: 2.17127 (Simulation time: 7 hr 2 min 16 sec) 
 Total Blocks : 262144 Invalid Blocks : 0
Heartbeat CPU 5 instructions: 190000000 cycles: 87506700 heartbeat IPC: 2.05236 cumulative IPC: 2.17126 (Simulation time: 7 hr 2 min 16 sec) 
 Total Blocks : 262144 Invalid Blocks : 0
Heartbeat CPU 7 instructions: 190000000 cycles: 87507095 heartbeat IPC: 2.05236 cumulative IPC: 2.17125 (Simulation time: 7 hr 2 min 16 sec) 
 Total Blocks : 262144 Invalid Blocks : 0
Heartbeat CPU 2 instructions: 200000000 cycles: 92293705 heartbeat IPC: 2.08867 cumulative IPC: 2.167 (Simulation time: 7 hr 23 min 45 sec) 
 Total Blocks : 262144 Invalid Blocks : 0
Heartbeat CPU 0 instructions: 200000000 cycles: 92293823 heartbeat IPC: 2.08867 cumulative IPC: 2.16699 (Simulation time: 7 hr 23 min 46 sec) 
 Total Blocks : 262144 Invalid Blocks : 0
Heartbeat CPU 4 instructions: 200000000 cycles: 92293849 heartbeat IPC: 2.08868 cumulative IPC: 2.16699 (Simulation time: 7 hr 23 min 46 sec) 
 Total Blocks : 262144 Invalid Blocks : 0
Heartbeat CPU 1 instructions: 200000000 cycles: 92293939 heartbeat IPC: 2.08866 cumulative IPC: 2.16699 (Simulation time: 7 hr 23 min 46 sec) 
 Total Blocks : 262144 Invalid Blocks : 0
Heartbeat CPU 3 instructions: 200000000 cycles: 92293977 heartbeat IPC: 2.08867 cumulative IPC: 2.16699 (Simulation time: 7 hr 23 min 46 sec) 
 Total Blocks : 262144 Invalid Blocks : 0
Heartbeat CPU 6 instructions: 200000000 cycles: 92294019 heartbeat IPC: 2.08867 cumulative IPC: 2.16699 (Simulation time: 7 hr 23 min 46 sec) 
 Total Blocks : 262144 Invalid Blocks : 0
Heartbeat CPU 5 instructions: 200000000 cycles: 92294436 heartbeat IPC: 2.08867 cumulative IPC: 2.16698 (Simulation time: 7 hr 23 min 46 sec) 
 Total Blocks : 262144 Invalid Blocks : 0
Heartbeat CPU 7 instructions: 200000000 cycles: 92294846 heartbeat IPC: 2.08866 cumulative IPC: 2.16697 (Simulation time: 7 hr 23 min 46 sec) 
 Total Blocks : 262144 Invalid Blocks : 0

Warmup complete CPU 0 instructions: 200002189 cycles: 92294847 (Simulation time: 7 hr 23 min 46 sec) 
Warmup complete CPU 1 instructions: 200001935 cycles: 92294847 (Simulation time: 7 hr 23 min 46 sec) 
Warmup complete CPU 2 instructions: 200002531 cycles: 92294847 (Simulation time: 7 hr 23 min 46 sec) 
Warmup complete CPU 3 instructions: 200001854 cycles: 92294847 (Simulation time: 7 hr 23 min 46 sec) 
Warmup complete CPU 4 instructions: 200002176 cycles: 92294847 (Simulation time: 7 hr 23 min 46 sec) 
Warmup complete CPU 5 instructions: 200000805 cycles: 92294847 (Simulation time: 7 hr 23 min 46 sec) 
Warmup complete CPU 6 instructions: 200001821 cycles: 92294847 (Simulation time: 7 hr 23 min 46 sec) 
Warmup complete CPU 7 instructions: 200000004 cycles: 92294847 (Simulation time: 7 hr 23 min 46 sec) 

Heartbeat CPU 1 instructions: 210000003 cycles: 99046754 heartbeat IPC: 1.48086 cumulative IPC: 1.48078 (Simulation time: 7 hr 46 min 15 sec) 
 Total Blocks : 262144 Invalid Blocks : 0
Heartbeat CPU 2 instructions: 210000003 cycles: 99056893 heartbeat IPC: 1.47859 cumulative IPC: 1.47847 (Simulation time: 7 hr 46 min 18 sec) 
 Total Blocks : 262144 Invalid Blocks : 0
Heartbeat CPU 0 instructions: 210000003 cycles: 99072773 heartbeat IPC: 1.47516 cumulative IPC: 1.47506 (Simulation time: 7 hr 46 min 21 sec) 
 Total Blocks : 262144 Invalid Blocks : 0
Heartbeat CPU 7 instructions: 210000003 cycles: 99080980 heartbeat IPC: 1.47359 cumulative IPC: 1.47359 (Simulation time: 7 hr 46 min 22 sec) 
 Total Blocks : 262144 Invalid Blocks : 0
Heartbeat CPU 5 instructions: 210000003 cycles: 99085242 heartbeat IPC: 1.47258 cumulative IPC: 1.47255 (Simulation time: 7 hr 46 min 23 sec) 
 Total Blocks : 262144 Invalid Blocks : 0
Heartbeat CPU 4 instructions: 210000003 cycles: 99094279 heartbeat IPC: 1.4705 cumulative IPC: 1.47039 (Simulation time: 7 hr 46 min 25 sec) 
 Total Blocks : 262144 Invalid Blocks : 0
Heartbeat CPU 3 instructions: 210000003 cycles: 99096887 heartbeat IPC: 1.46996 cumulative IPC: 1.46988 (Simulation time: 7 hr 46 min 25 sec) 
 Total Blocks : 262144 Invalid Blocks : 0
Heartbeat CPU 6 instructions: 210000003 cycles: 99101027 heartbeat IPC: 1.46907 cumulative IPC: 1.46899 (Simulation time: 7 hr 46 min 26 sec) 
 Total Blocks : 262144 Invalid Blocks : 0
Heartbeat CPU 0 instructions: 220000000 cycles: 106302017 heartbeat IPC: 1.38327 cumulative IPC: 1.42768 (Simulation time: 8 hr 9 min 27 sec) 
 Total Blocks : 262144 Invalid Blocks : 0
Heartbeat CPU 7 instructions: 220000000 cycles: 106302244 heartbeat IPC: 1.3848 cumulative IPC: 1.42782 (Simulation time: 8 hr 9 min 27 sec) 
 Total Blocks : 262144 Invalid Blocks : 0
Heartbeat CPU 1 instructions: 220000000 cycles: 106303709 heartbeat IPC: 1.37799 cumulative IPC: 1.42753 (Simulation time: 8 hr 9 min 28 sec) 
 Total Blocks : 262144 Invalid Blocks : 0
Heartbeat CPU 5 instructions: 220000000 cycles: 106305156 heartbeat IPC: 1.38506 cumulative IPC: 1.42746 (Simulation time: 8 hr 9 min 28 sec) 
 Total Blocks : 262144 Invalid Blocks : 0
Heartbeat CPU 2 instructions: 220000000 cycles: 106305264 heartbeat IPC: 1.37962 cumulative IPC: 1.42733 (Simulation time: 8 hr 9 min 28 sec) 
 Total Blocks : 262144 Invalid Blocks : 0
Heartbeat CPU 3 instructions: 220000000 cycles: 106353410 heartbeat IPC: 1.37807 cumulative IPC: 1.42249 (Simulation time: 8 hr 9 min 37 sec) 
 Total Blocks : 262144 Invalid Blocks : 0
Heartbeat CPU 4 instructions: 220000000 cycles: 106357849 heartbeat IPC: 1.37673 cumulative IPC: 1.42202 (Simulation time: 8 hr 9 min 38 sec) 
 Total Blocks : 262144 Invalid Blocks : 0
Heartbeat CPU 6 instructions: 220000000 cycles: 106363849 heartbeat IPC: 1.37687 cumulative IPC: 1.42144 (Simulation time: 8 hr 9 min 40 sec) 
 Total Blocks : 262144 Invalid Blocks : 0
Heartbeat CPU 1 instructions: 230000000 cycles: 118495518 heartbeat IPC: 0.820223 cumulative IPC: 1.14494 (Simulation time: 8 hr 35 min 49 sec) 
 Total Blocks : 262144 Invalid Blocks : 0
Heartbeat CPU 7 instructions: 230000000 cycles: 118559247 heartbeat IPC: 0.81586 cumulative IPC: 1.14223 (Simulation time: 8 hr 35 min 58 sec) 
 Total Blocks : 262144 Invalid Blocks : 0
Heartbeat CPU 5 instructions: 230000000 cycles: 118563236 heartbeat IPC: 0.815788 cumulative IPC: 1.14203 (Simulation time: 8 hr 35 min 59 sec) 
 Total Blocks : 262144 Invalid Blocks : 0
Heartbeat CPU 2 instructions: 230000000 cycles: 118597123 heartbeat IPC: 0.813547 cumulative IPC: 1.14049 (Simulation time: 8 hr 36 min 3 sec) 
 Total Blocks : 262144 Invalid Blocks : 0
Heartbeat CPU 0 instructions: 230000000 cycles: 118597202 heartbeat IPC: 0.813327 cumulative IPC: 1.1405 (Simulation time: 8 hr 36 min 3 sec) 
 Total Blocks : 262144 Invalid Blocks : 0
Heartbeat CPU 4 instructions: 230000000 cycles: 118616032 heartbeat IPC: 0.815782 cumulative IPC: 1.13968 (Simulation time: 8 hr 36 min 6 sec) 
 Total Blocks : 262144 Invalid Blocks : 0
Heartbeat CPU 6 instructions: 230000000 cycles: 118656830 heartbeat IPC: 0.813472 cumulative IPC: 1.13793 (Simulation time: 8 hr 36 min 12 sec) 
 Total Blocks : 262144 Invalid Blocks : 0
Heartbeat CPU 3 instructions: 230000000 cycles: 118826683 heartbeat IPC: 0.801714 cumulative IPC: 1.13065 (Simulation time: 8 hr 36 min 35 sec) 
 Total Blocks : 262144 Invalid Blocks : 0
Heartbeat CPU 1 instructions: 240000001 cycles: 136367792 heartbeat IPC: 0.559526 cumulative IPC: 0.907542 (Simulation time: 9 hr 6 min 53 sec) 
 Total Blocks : 262144 Invalid Blocks : 0
Heartbeat CPU 5 instructions: 240000001 cycles: 136413165 heartbeat IPC: 0.560226 cumulative IPC: 0.906635 (Simulation time: 9 hr 6 min 58 sec) 
 Total Blocks : 262144 Invalid Blocks : 0
Heartbeat CPU 7 instructions: 240000001 cycles: 136436839 heartbeat IPC: 0.559359 cumulative IPC: 0.906167 (Simulation time: 9 hr 7 min 0 sec) 
 Total Blocks : 262144 Invalid Blocks : 0
Heartbeat CPU 2 instructions: 240000001 cycles: 136446147 heartbeat IPC: 0.560255 cumulative IPC: 0.905918 (Simulation time: 9 hr 7 min 1 sec) 
 Total Blocks : 262144 Invalid Blocks : 0
Heartbeat CPU 0 instructions: 240000001 cycles: 136899001 heartbeat IPC: 0.546394 cumulative IPC: 0.896728 (Simulation time: 9 hr 7 min 46 sec) 
 Total Blocks : 262144 Invalid Blocks : 0
Heartbeat CPU 4 instructions: 240000001 cycles: 136924381 heartbeat IPC: 0.546199 cumulative IPC: 0.896219 (Simulation time: 9 hr 7 min 48 sec) 
 Total Blocks : 262144 Invalid Blocks : 0
Heartbeat CPU 6 instructions: 240000001 cycles: 137198838 heartbeat IPC: 0.539316 cumulative IPC: 0.890749 (Simulation time: 9 hr 8 min 11 sec) 
 Total Blocks : 262144 Invalid Blocks : 0
Heartbeat CPU 3 instructions: 240000001 cycles: 137423118 heartbeat IPC: 0.537738 cumulative IPC: 0.886321 (Simulation time: 9 hr 8 min 31 sec) 
 Total Blocks : 262144 Invalid Blocks : 0
Heartbeat CPU 1 instructions: 250000001 cycles: 152619097 heartbeat IPC: 0.615335 cumulative IPC: 0.828822 (Simulation time: 9 hr 38 min 4 sec) 
 Total Blocks : 262144 Invalid Blocks : 0
Heartbeat CPU 5 instructions: 250000000 cycles: 152726490 heartbeat IPC: 0.612996 cumulative IPC: 0.827368 (Simulation time: 9 hr 38 min 15 sec) 
 Total Blocks : 262144 Invalid Blocks : 0
Heartbeat CPU 7 instructions: 250000001 cycles: 152776478 heartbeat IPC: 0.612009 cumulative IPC: 0.826697 (Simulation time: 9 hr 38 min 21 sec) 
 Total Blocks : 262144 Invalid Blocks : 0
Heartbeat CPU 2 instructions: 250000001 cycles: 152902524 heartbeat IPC: 0.607667 cumulative IPC: 0.824936 (Simulation time: 9 hr 38 min 36 sec) 
 Total Blocks : 262144 Invalid Blocks : 0
Heartbeat CPU 0 instructions: 250000001 cycles: 153349778 heartbeat IPC: 0.607874 cumulative IPC: 0.818899 (Simulation time: 9 hr 39 min 27 sec) 
 Total Blocks : 262144 Invalid Blocks : 0
Heartbeat CPU 4 instructions: 250000001 cycles: 153367158 heartbeat IPC: 0.60817 cumulative IPC: 0.818666 (Simulation time: 9 hr 39 min 29 sec) 
 Total Blocks : 262144 Invalid Blocks : 0
Heartbeat CPU 6 instructions: 250000001 cycles: 153597865 heartbeat IPC: 0.609792 cumulative IPC: 0.815591 (Simulation time: 9 hr 39 min 56 sec) 
 Total Blocks : 262144 Invalid Blocks : 0
Heartbeat CPU 3 instructions: 250000001 cycles: 153734097 heartbeat IPC: 0.613084 cumulative IPC: 0.813782 (Simulation time: 9 hr 40 min 12 sec) 
 Total Blocks : 262144 Invalid Blocks : 0
Heartbeat CPU 1 instructions: 260000001 cycles: 171472746 heartbeat IPC: 0.530401 cumulative IPC: 0.757763 (Simulation time: 10 hr 7 min 20 sec) 
 Total Blocks : 262144 Invalid Blocks : 0
Heartbeat CPU 5 instructions: 260000001 cycles: 171549144 heartbeat IPC: 0.531275 cumulative IPC: 0.757047 (Simulation time: 10 hr 7 min 28 sec) 
 Total Blocks : 262144 Invalid Blocks : 0
Heartbeat CPU 7 instructions: 260000001 cycles: 171902884 heartbeat IPC: 0.522837 cumulative IPC: 0.753693 (Simulation time: 10 hr 8 min 1 sec) 
 Total Blocks : 262144 Invalid Blocks : 0
Heartbeat CPU 2 instructions: 260000001 cycles: 172190016 heartbeat IPC: 0.518471 cumulative IPC: 0.750952 (Simulation time: 10 hr 8 min 29 sec) 
 Total Blocks : 262144 Invalid Blocks : 0
Heartbeat CPU 0 instructions: 260000001 cycles: 172247621 heartbeat IPC: 0.529161 cumulative IPC: 0.750416 (Simulation time: 10 hr 8 min 36 sec) 
 Total Blocks : 262144 Invalid Blocks : 0
Heartbeat CPU 4 instructions: 260000001 cycles: 172502250 heartbeat IPC: 0.5226 cumulative IPC: 0.748034 (Simulation time: 10 hr 9 min 1 sec) 
 Total Blocks : 262144 Invalid Blocks : 0
Heartbeat CPU 6 instructions: 260000001 cycles: 172788787 heartbeat IPC: 0.52108 cumulative IPC: 0.745375 (Simulation time: 10 hr 9 min 32 sec) 
 Total Blocks : 262144 Invalid Blocks : 0
Heartbeat CPU 3 instructions: 260000001 cycles: 173073856 heartbeat IPC: 0.51707 cumulative IPC: 0.742744 (Simulation time: 10 hr 9 min 59 sec) 
 Total Blocks : 262144 Invalid Blocks : 0
Heartbeat CPU 5 instructions: 270000000 cycles: 183430729 heartbeat IPC: 0.841638 cumulative IPC: 0.768075 (Simulation time: 10 hr 36 min 12 sec) 
 Total Blocks : 262144 Invalid Blocks : 0
Heartbeat CPU 1 instructions: 270000000 cycles: 183462188 heartbeat IPC: 0.834067 cumulative IPC: 0.767798 (Simulation time: 10 hr 36 min 17 sec) 
 Total Blocks : 262144 Invalid Blocks : 0
Heartbeat CPU 7 instructions: 270000000 cycles: 183923873 heartbeat IPC: 0.831878 cumulative IPC: 0.76395 (Simulation time: 10 hr 37 min 30 sec) 
 Total Blocks : 262144 Invalid Blocks : 0
Heartbeat CPU 2 instructions: 270000000 cycles: 184043294 heartbeat IPC: 0.843648 cumulative IPC: 0.762928 (Simulation time: 10 hr 37 min 47 sec) 
 Total Blocks : 262144 Invalid Blocks : 0
Heartbeat CPU 0 instructions: 270000000 cycles: 184104133 heartbeat IPC: 0.843418 cumulative IPC: 0.762426 (Simulation time: 10 hr 37 min 55 sec) 
 Total Blocks : 262144 Invalid Blocks : 0
Heartbeat CPU 4 instructions: 270000000 cycles: 184388437 heartbeat IPC: 0.841313 cumulative IPC: 0.760073 (Simulation time: 10 hr 38 min 39 sec) 
 Total Blocks : 262144 Invalid Blocks : 0
Heartbeat CPU 6 instructions: 270000000 cycles: 184627629 heartbeat IPC: 0.844677 cumulative IPC: 0.758108 (Simulation time: 10 hr 39 min 17 sec) 
 Total Blocks : 262144 Invalid Blocks : 0
Heartbeat CPU 3 instructions: 270000000 cycles: 185039170 heartbeat IPC: 0.835749 cumulative IPC: 0.754743 (Simulation time: 10 hr 40 min 21 sec) 
 Total Blocks : 262144 Invalid Blocks : 0
Heartbeat CPU 1 instructions: 280000002 cycles: 229164337 heartbeat IPC: 0.218808 cumulative IPC: 0.584484 (Simulation time: 11 hr 55 min 29 sec) 
 Total Blocks : 262144 Invalid Blocks : 0
Heartbeat CPU 5 instructions: 280000000 cycles: 229202992 heartbeat IPC: 0.218473 cumulative IPC: 0.584328 (Simulation time: 11 hr 55 min 34 sec) 
 Total Blocks : 262144 Invalid Blocks : 0
Heartbeat CPU 2 instructions: 280000002 cycles: 229593731 heartbeat IPC: 0.219537 cumulative IPC: 0.582652 (Simulation time: 11 hr 56 min 29 sec) 
 Total Blocks : 262144 Invalid Blocks : 0
Heartbeat CPU 7 instructions: 280000001 cycles: 229822762 heartbeat IPC: 0.21787 cumulative IPC: 0.5817 (Simulation time: 11 hr 57 min 1 sec) 
 Total Blocks : 262144 Invalid Blocks : 0
Heartbeat CPU 0 instructions: 280000001 cycles: 229898990 heartbeat IPC: 0.218365 cumulative IPC: 0.581362 (Simulation time: 11 hr 57 min 12 sec) 
 Total Blocks : 262144 Invalid Blocks : 0
Heartbeat CPU 4 instructions: 280000002 cycles: 230479121 heartbeat IPC: 0.216964 cumulative IPC: 0.578921 (Simulation time: 11 hr 58 min 33 sec) 
 Total Blocks : 262144 Invalid Blocks : 0
Heartbeat CPU 6 instructions: 280000001 cycles: 231015523 heartbeat IPC: 0.215574 cumulative IPC: 0.576685 (Simulation time: 11 hr 59 min 39 sec) 
 Total Blocks : 262144 Invalid Blocks : 0
Heartbeat CPU 3 instructions: 280000001 cycles: 231989029 heartbeat IPC: 0.212993 cumulative IPC: 0.572666 (Simulation time: 12 hr 1 min 17 sec) 
 Total Blocks : 262144 Invalid Blocks : 0
Heartbeat CPU 1 instructions: 290000002 cycles: 254745140 heartbeat IPC: 0.390918 cumulative IPC: 0.554004 (Simulation time: 12 hr 33 min 38 sec) 
 Total Blocks : 262144 Invalid Blocks : 0
Heartbeat CPU 5 instructions: 290000002 cycles: 254812343 heartbeat IPC: 0.390482 cumulative IPC: 0.553782 (Simulation time: 12 hr 33 min 44 sec) 
 Total Blocks : 262144 Invalid Blocks : 0
Heartbeat CPU 2 instructions: 290000002 cycles: 255020359 heartbeat IPC: 0.393288 cumulative IPC: 0.553063 (Simulation time: 12 hr 34 min 3 sec) 
 Total Blocks : 262144 Invalid Blocks : 0
Heartbeat CPU 7 instructions: 290000002 cycles: 255076342 heartbeat IPC: 0.395983 cumulative IPC: 0.552888 (Simulation time: 12 hr 34 min 8 sec) 
 Total Blocks : 262144 Invalid Blocks : 0
Heartbeat CPU 0 instructions: 290000002 cycles: 255256479 heartbeat IPC: 0.394361 cumulative IPC: 0.552264 (Simulation time: 12 hr 34 min 25 sec) 
 Total Blocks : 262144 Invalid Blocks : 0
Heartbeat CPU 4 instructions: 290000002 cycles: 255695402 heartbeat IPC: 0.396569 cumulative IPC: 0.55078 (Simulation time: 12 hr 35 min 1 sec) 
 Total Blocks : 262144 Invalid Blocks : 0
Heartbeat CPU 6 instructions: 290000002 cycles: 255830734 heartbeat IPC: 0.402979 cumulative IPC: 0.550327 (Simulation time: 12 hr 35 min 11 sec) 
 Total Blocks : 262144 Invalid Blocks : 0
Heartbeat CPU 3 instructions: 290000002 cycles: 256433995 heartbeat IPC: 0.409082 cumulative IPC: 0.548304 (Simulation time: 12 hr 35 min 50 sec) 
 Total Blocks : 262144 Invalid Blocks : 0
Heartbeat CPU 1 instructions: 300000001 cycles: 276708330 heartbeat IPC: 0.455307 cumulative IPC: 0.542249 (Simulation time: 13 hr 5 min 38 sec) 
 Total Blocks : 262144 Invalid Blocks : 0
Heartbeat CPU 5 instructions: 300000001 cycles: 276712661 heartbeat IPC: 0.456614 cumulative IPC: 0.542243 (Simulation time: 13 hr 5 min 38 sec) 
 Total Blocks : 262144 Invalid Blocks : 0
Heartbeat CPU 2 instructions: 300000001 cycles: 276968606 heartbeat IPC: 0.455617 cumulative IPC: 0.541482 (Simulation time: 13 hr 6 min 9 sec) 
 Total Blocks : 262144 Invalid Blocks : 0
Heartbeat CPU 7 instructions: 300000001 cycles: 277233065 heartbeat IPC: 0.45133 cumulative IPC: 0.540721 (Simulation time: 13 hr 6 min 38 sec) 
 Total Blocks : 262144 Invalid Blocks : 0
Heartbeat CPU 0 instructions: 300000001 cycles: 277480770 heartbeat IPC: 0.449958 cumulative IPC: 0.539986 (Simulation time: 13 hr 7 min 7 sec) 
 Total Blocks : 262144 Invalid Blocks : 0
Heartbeat CPU 6 instructions: 300000001 cycles: 277755051 heartbeat IPC: 0.456115 cumulative IPC: 0.539189 (Simulation time: 13 hr 7 min 38 sec) 
 Total Blocks : 262144 Invalid Blocks : 0
Heartbeat CPU 4 instructions: 300000001 cycles: 277760934 heartbeat IPC: 0.453195 cumulative IPC: 0.53917 (Simulation time: 13 hr 7 min 38 sec) 
 Total Blocks : 262144 Invalid Blocks : 0
Heartbeat CPU 3 instructions: 300000001 cycles: 278529319 heartbeat IPC: 0.452584 cumulative IPC: 0.536948 (Simulation time: 13 hr 9 min 3 sec) 
 Total Blocks : 262144 Invalid Blocks : 0
Heartbeat CPU 5 instructions: 310000003 cycles: 312811232 heartbeat IPC: 0.277019 cumulative IPC: 0.498826 (Simulation time: 13 hr 59 min 58 sec) 
 Total Blocks : 262144 Invalid Blocks : 0
Heartbeat CPU 1 instructions: 310000003 cycles: 312921100 heartbeat IPC: 0.276146 cumulative IPC: 0.498572 (Simulation time: 14 hr 0 min 6 sec) 
 Total Blocks : 262144 Invalid Blocks : 0
Heartbeat CPU 2 instructions: 310000003 cycles: 313252705 heartbeat IPC: 0.275603 cumulative IPC: 0.497821 (Simulation time: 14 hr 0 min 30 sec) 
 Total Blocks : 262144 Invalid Blocks : 0
Heartbeat CPU 7 instructions: 310000003 cycles: 313480725 heartbeat IPC: 0.27588 cumulative IPC: 0.497319 (Simulation time: 14 hr 0 min 46 sec) 
 Total Blocks : 262144 Invalid Blocks : 0
Heartbeat CPU 0 instructions: 310000003 cycles: 313672818 heartbeat IPC: 0.276304 cumulative IPC: 0.496878 (Simulation time: 14 hr 1 min 0 sec) 
 Total Blocks : 262144 Invalid Blocks : 0
Heartbeat CPU 6 instructions: 310000003 cycles: 313741844 heartbeat IPC: 0.27788 cumulative IPC: 0.496725 (Simulation time: 14 hr 1 min 5 sec) 
 Total Blocks : 262144 Invalid Blocks : 0
Heartbeat CPU 4 instructions: 310000003 cycles: 313942519 heartbeat IPC: 0.276384 cumulative IPC: 0.496273 (Simulation time: 14 hr 1 min 20 sec) 
 Total Blocks : 262144 Invalid Blocks : 0
Heartbeat CPU 3 instructions: 310000003 cycles: 314707456 heartbeat IPC: 0.27641 cumulative IPC: 0.494568 (Simulation time: 14 hr 2 min 16 sec) 
 Total Blocks : 262144 Invalid Blocks : 0
Heartbeat CPU 5 instructions: 320000000 cycles: 331536149 heartbeat IPC: 0.534048 cumulative IPC: 0.501582 (Simulation time: 14 hr 25 min 33 sec) 
 Total Blocks : 262144 Invalid Blocks : 0
Heartbeat CPU 1 instructions: 320000000 cycles: 331675927 heartbeat IPC: 0.533196 cumulative IPC: 0.501285 (Simulation time: 14 hr 25 min 48 sec) 
 Total Blocks : 262144 Invalid Blocks : 0
Heartbeat CPU 2 instructions: 320000002 cycles: 331865400 heartbeat IPC: 0.537268 cumulative IPC: 0.500886 (Simulation time: 14 hr 26 min 8 sec) 
 Total Blocks : 262144 Invalid Blocks : 0
Heartbeat CPU 7 instructions: 320000002 cycles: 332036887 heartbeat IPC: 0.538904 cumulative IPC: 0.500538 (Simulation time: 14 hr 26 min 26 sec) 
 Total Blocks : 262144 Invalid Blocks : 0
Heartbeat CPU 0 instructions: 320000000 cycles: 332110730 heartbeat IPC: 0.542361 cumulative IPC: 0.500375 (Simulation time: 14 hr 26 min 34 sec) 
 Total Blocks : 262144 Invalid Blocks : 0
Heartbeat CPU 6 instructions: 320000000 cycles: 332190211 heartbeat IPC: 0.542053 cumulative IPC: 0.500211 (Simulation time: 14 hr 26 min 43 sec) 
 Total Blocks : 262144 Invalid Blocks : 0
Heartbeat CPU 4 instructions: 320000002 cycles: 332510567 heartbeat IPC: 0.538559 cumulative IPC: 0.499542 (Simulation time: 14 hr 27 min 15 sec) 
 Total Blocks : 262144 Invalid Blocks : 0
Heartbeat CPU 3 instructions: 320000002 cycles: 333112325 heartbeat IPC: 0.543334 cumulative IPC: 0.498295 (Simulation time: 14 hr 28 min 19 sec) 
 Total Blocks : 262144 Invalid Blocks : 0
Heartbeat CPU 5 instructions: 330000000 cycles: 354027603 heartbeat IPC: 0.444613 cumulative IPC: 0.496687 (Simulation time: 14 hr 54 min 37 sec) 
 Total Blocks : 262144 Invalid Blocks : 0
Heartbeat CPU 1 instructions: 330000000 cycles: 354124946 heartbeat IPC: 0.445454 cumulative IPC: 0.496498 (Simulation time: 14 hr 54 min 45 sec) 
 Total Blocks : 262144 Invalid Blocks : 0
Heartbeat CPU 2 instructions: 330000000 cycles: 354264985 heartbeat IPC: 0.446437 cumulative IPC: 0.49623 (Simulation time: 14 hr 54 min 58 sec) 
 Total Blocks : 262144 Invalid Blocks : 0
Heartbeat CPU 7 instructions: 330000000 cycles: 354379001 heartbeat IPC: 0.447585 cumulative IPC: 0.496024 (Simulation time: 14 hr 55 min 8 sec) 
 Total Blocks : 262144 Invalid Blocks : 0
Heartbeat CPU 0 instructions: 330000000 cycles: 354497203 heartbeat IPC: 0.446698 cumulative IPC: 0.495792 (Simulation time: 14 hr 55 min 18 sec) 
 Total Blocks : 262144 Invalid Blocks : 0
Heartbeat CPU 6 instructions: 330000000 cycles: 354628752 heartbeat IPC: 0.445662 cumulative IPC: 0.495545 (Simulation time: 14 hr 55 min 30 sec) 
 Total Blocks : 262144 Invalid Blocks : 0
Heartbeat CPU 4 instructions: 330000000 cycles: 354919863 heartbeat IPC: 0.446243 cumulative IPC: 0.494994 (Simulation time: 14 hr 55 min 56 sec) 
 Total Blocks : 262144 Invalid Blocks : 0
Heartbeat CPU 3 instructions: 330000000 cycles: 355686833 heartbeat IPC: 0.442977 cumulative IPC: 0.493554 (Simulation time: 14 hr 56 min 53 sec) 
 Total Blocks : 262144 Invalid Blocks : 0
Heartbeat CPU 1 instructions: 340000002 cycles: 405192837 heartbeat IPC: 0.195818 cumulative IPC: 0.447424 (Simulation time: 15 hr 55 min 53 sec) 
 Total Blocks : 262144 Invalid Blocks : 0
Heartbeat CPU 5 instructions: 340000002 cycles: 405304931 heartbeat IPC: 0.195018 cumulative IPC: 0.447267 (Simulation time: 15 hr 56 min 5 sec) 
 Total Blocks : 262144 Invalid Blocks : 0
Heartbeat CPU 7 instructions: 340000002 cycles: 405473366 heartbeat IPC: 0.195716 cumulative IPC: 0.447029 (Simulation time: 15 hr 56 min 26 sec) 
 Total Blocks : 262144 Invalid Blocks : 0
Heartbeat CPU 2 instructions: 340000002 cycles: 405597994 heartbeat IPC: 0.194806 cumulative IPC: 0.446843 (Simulation time: 15 hr 56 min 41 sec) 
 Total Blocks : 262144 Invalid Blocks : 0
Heartbeat CPU 0 instructions: 340000002 cycles: 405987888 heartbeat IPC: 0.19421 cumulative IPC: 0.446289 (Simulation time: 15 hr 57 min 26 sec) 
 Total Blocks : 262144 Invalid Blocks : 0
Heartbeat CPU 4 instructions: 340000002 cycles: 406248291 heartbeat IPC: 0.194824 cumulative IPC: 0.445919 (Simulation time: 15 hr 57 min 53 sec) 
 Total Blocks : 262144 Invalid Blocks : 0
Heartbeat CPU 6 instructions: 340000002 cycles: 406392960 heartbeat IPC: 0.193184 cumulative IPC: 0.445715 (Simulation time: 15 hr 58 min 6 sec) 
 Total Blocks : 262144 Invalid Blocks : 0
Heartbeat CPU 3 instructions: 340000002 cycles: 408053090 heartbeat IPC: 0.190963 cumulative IPC: 0.443371 (Simulation time: 16 hr 1 min 43 sec) 
 Total Blocks : 262144 Invalid Blocks : 0
Heartbeat CPU 1 instructions: 350000000 cycles: 413294862 heartbeat IPC: 1.23426 cumulative IPC: 0.467284 (Simulation time: 16 hr 15 min 1 sec) 
 Total Blocks : 262144 Invalid Blocks : 0
Heartbeat CPU 5 instructions: 350000000 cycles: 413374780 heartbeat IPC: 1.23918 cumulative IPC: 0.467171 (Simulation time: 16 hr 15 min 14 sec) 
 Total Blocks : 262144 Invalid Blocks : 0
Heartbeat CPU 7 instructions: 350000000 cycles: 413504826 heartbeat IPC: 1.2451 cumulative IPC: 0.466984 (Simulation time: 16 hr 15 min 35 sec) 
 Total Blocks : 262144 Invalid Blocks : 0
Heartbeat CPU 2 instructions: 350000000 cycles: 413609502 heartbeat IPC: 1.2482 cumulative IPC: 0.466824 (Simulation time: 16 hr 15 min 50 sec) 
 Total Blocks : 262144 Invalid Blocks : 0
Heartbeat CPU 0 instructions: 350000000 cycles: 413916680 heartbeat IPC: 1.26123 cumulative IPC: 0.466379 (Simulation time: 16 hr 16 min 39 sec) 
 Total Blocks : 262144 Invalid Blocks : 0
Heartbeat CPU 4 instructions: 350000000 cycles: 413977806 heartbeat IPC: 1.29374 cumulative IPC: 0.466291 (Simulation time: 16 hr 16 min 45 sec) 
 Total Blocks : 262144 Invalid Blocks : 0
Heartbeat CPU 6 instructions: 350000000 cycles: 414037018 heartbeat IPC: 1.30821 cumulative IPC: 0.466206 (Simulation time: 16 hr 16 min 55 sec) 
 Total Blocks : 262144 Invalid Blocks : 0
Heartbeat CPU 3 instructions: 350000000 cycles: 415294587 heartbeat IPC: 1.38093 cumulative IPC: 0.464391 (Simulation time: 16 hr 20 min 8 sec) 
 Total Blocks : 262144 Invalid Blocks : 0
Heartbeat CPU 1 instructions: 360000003 cycles: 429777417 heartbeat IPC: 0.606702 cumulative IPC: 0.474093 (Simulation time: 16 hr 38 min 45 sec) 
 Total Blocks : 262144 Invalid Blocks : 0
Heartbeat CPU 5 instructions: 360000003 cycles: 430057499 heartbeat IPC: 0.599423 cumulative IPC: 0.473703 (Simulation time: 16 hr 39 min 27 sec) 
 Total Blocks : 262144 Invalid Blocks : 0
Heartbeat CPU 2 instructions: 360000003 cycles: 430239841 heartbeat IPC: 0.601311 cumulative IPC: 0.473442 (Simulation time: 16 hr 39 min 54 sec) 
 Total Blocks : 262144 Invalid Blocks : 0
Heartbeat CPU 7 instructions: 360000003 cycles: 430257984 heartbeat IPC: 0.596903 cumulative IPC: 0.473424 (Simulation time: 16 hr 39 min 57 sec) 
 Total Blocks : 262144 Invalid Blocks : 0
Heartbeat CPU 0 instructions: 360000003 cycles: 430742334 heartbeat IPC: 0.594331 cumulative IPC: 0.47274 (Simulation time: 16 hr 41 min 9 sec) 
 Total Blocks : 262144 Invalid Blocks : 0
Heartbeat CPU 4 instructions: 360000003 cycles: 430753370 heartbeat IPC: 0.596105 cumulative IPC: 0.472725 (Simulation time: 16 hr 41 min 10 sec) 
 Total Blocks : 262144 Invalid Blocks : 0
Heartbeat CPU 6 instructions: 360000003 cycles: 430878599 heartbeat IPC: 0.593769 cumulative IPC: 0.472551 (Simulation time: 16 hr 41 min 28 sec) 
 Total Blocks : 262144 Invalid Blocks : 0
Heartbeat CPU 3 instructions: 360000003 cycles: 432333715 heartbeat IPC: 0.586885 cumulative IPC: 0.470529 (Simulation time: 16 hr 45 min 13 sec) 
 Total Blocks : 262144 Invalid Blocks : 0
Heartbeat CPU 1 instructions: 370000001 cycles: 437072956 heartbeat IPC: 1.3707 cumulative IPC: 0.493065 (Simulation time: 16 hr 57 min 57 sec) 
 Total Blocks : 262144 Invalid Blocks : 0
Heartbeat CPU 5 instructions: 370000001 cycles: 437325373 heartbeat IPC: 1.37592 cumulative IPC: 0.492708 (Simulation time: 16 hr 58 min 38 sec) 
 Total Blocks : 262144 Invalid Blocks : 0
Heartbeat CPU 2 instructions: 370000001 cycles: 437441885 heartbeat IPC: 1.38849 cumulative IPC: 0.492536 (Simulation time: 16 hr 58 min 57 sec) 
 Total Blocks : 262144 Invalid Blocks : 0
Heartbeat CPU 7 instructions: 370000001 cycles: 437457810 heartbeat IPC: 1.38892 cumulative IPC: 0.492521 (Simulation time: 16 hr 58 min 59 sec) 
 Total Blocks : 262144 Invalid Blocks : 0
Heartbeat CPU 4 instructions: 370000001 cycles: 437909099 heartbeat IPC: 1.39748 cumulative IPC: 0.491872 (Simulation time: 17 hr 0 min 0 sec) 
 Total Blocks : 262144 Invalid Blocks : 0
Heartbeat CPU 0 instructions: 370000001 cycles: 437913673 heartbeat IPC: 1.39444 cumulative IPC: 0.491865 (Simulation time: 17 hr 0 min 0 sec) 
 Total Blocks : 262144 Invalid Blocks : 0
Heartbeat CPU 6 instructions: 370000001 cycles: 438070399 heartbeat IPC: 1.39047 cumulative IPC: 0.491643 (Simulation time: 17 hr 0 min 19 sec) 
 Total Blocks : 262144 Invalid Blocks : 0
Heartbeat CPU 3 instructions: 370000001 cycles: 439878960 heartbeat IPC: 1.32534 cumulative IPC: 0.489085 (Simulation time: 17 hr 3 min 0 sec) 
 Total Blocks : 262144 Invalid Blocks : 0
Heartbeat CPU 1 instructions: 380000002 cycles: 452430563 heartbeat IPC: 0.651143 cumulative IPC: 0.499806 (Simulation time: 17 hr 22 min 4 sec) 
 Total Blocks : 262144 Invalid Blocks : 0
Heartbeat CPU 5 instructions: 380000002 cycles: 452783169 heartbeat IPC: 0.646923 cumulative IPC: 0.49932 (Simulation time: 17 hr 23 min 0 sec) 
 Total Blocks : 262144 Invalid Blocks : 0
Heartbeat CPU 2 instructions: 380000002 cycles: 452859590 heartbeat IPC: 0.648605 cumulative IPC: 0.49921 (Simulation time: 17 hr 23 min 12 sec) 
 Total Blocks : 262144 Invalid Blocks : 0
Heartbeat CPU 7 instructions: 380000002 cycles: 452926653 heartbeat IPC: 0.646461 cumulative IPC: 0.499124 (Simulation time: 17 hr 23 min 23 sec) 
 Total Blocks : 262144 Invalid Blocks : 0
Heartbeat CPU 4 instructions: 380000002 cycles: 453357545 heartbeat IPC: 0.647314 cumulative IPC: 0.498522 (Simulation time: 17 hr 24 min 28 sec) 
 Total Blocks : 262144 Invalid Blocks : 0
Heartbeat CPU 0 instructions: 380000002 cycles: 453410173 heartbeat IPC: 0.645307 cumulative IPC: 0.49845 (Simulation time: 17 hr 24 min 37 sec) 
 Total Blocks : 262144 Invalid Blocks : 0
Heartbeat CPU 6 instructions: 380000002 cycles: 453693676 heartbeat IPC: 0.640071 cumulative IPC: 0.49806 (Simulation time: 17 hr 25 min 25 sec) 
 Total Blocks : 262144 Invalid Blocks : 0
Heartbeat CPU 3 instructions: 380000002 cycles: 455159258 heartbeat IPC: 0.654438 cumulative IPC: 0.496048 (Simulation time: 17 hr 29 min 35 sec) 
 Total Blocks : 262144 Invalid Blocks : 0
Heartbeat CPU 1 instructions: 390000001 cycles: 465043999 heartbeat IPC: 0.792805 cumulative IPC: 0.509721 (Simulation time: 17 hr 45 min 9 sec) 
 Total Blocks : 262144 Invalid Blocks : 0
Heartbeat CPU 5 instructions: 390000001 cycles: 466284279 heartbeat IPC: 0.74068 cumulative IPC: 0.508034 (Simulation time: 17 hr 46 min 18 sec) 
 Total Blocks : 262144 Invalid Blocks : 0
Heartbeat CPU 2 instructions: 390000001 cycles: 466499953 heartbeat IPC: 0.733118 cumulative IPC: 0.507736 (Simulation time: 17 hr 46 min 34 sec) 
 Total Blocks : 262144 Invalid Blocks : 0
Heartbeat CPU 7 instructions: 390000001 cycles: 466750157 heartbeat IPC: 0.723406 cumulative IPC: 0.507404 (Simulation time: 17 hr 46 min 51 sec) 
 Total Blocks : 262144 Invalid Blocks : 0
Heartbeat CPU 4 instructions: 390000001 cycles: 468002787 heartbeat IPC: 0.682816 cumulative IPC: 0.505706 (Simulation time: 17 hr 48 min 22 sec) 
 Total Blocks : 262144 Invalid Blocks : 0
Heartbeat CPU 0 instructions: 390000001 cycles: 468195225 heartbeat IPC: 0.676359 cumulative IPC: 0.505447 (Simulation time: 17 hr 48 min 41 sec) 
 Total Blocks : 262144 Invalid Blocks : 0
Heartbeat CPU 6 instructions: 390000001 cycles: 468514677 heartbeat IPC: 0.674718 cumulative IPC: 0.505019 (Simulation time: 17 hr 49 min 19 sec) 
 Total Blocks : 262144 Invalid Blocks : 0
Heartbeat CPU 3 instructions: 390000001 cycles: 470756423 heartbeat IPC: 0.641142 cumulative IPC: 0.502028 (Simulation time: 17 hr 53 min 50 sec) 
 Total Blocks : 262144 Invalid Blocks : 0
Heartbeat CPU 1 instructions: 400000002 cycles: 474789108 heartbeat IPC: 1.02616 cumulative IPC: 0.522879 (Simulation time: 18 hr 4 min 17 sec) 
 Total Blocks : 262144 Invalid Blocks : 0
Finished CPU 1 instructions: 200000000 cycles: 382495441 cumulative IPC: 0.522882 (Simulation time: 18 hr 4 min 18 sec) 
Heartbeat CPU 5 instructions: 400000002 cycles: 475275975 heartbeat IPC: 1.11214 cumulative IPC: 0.522217 (Simulation time: 18 hr 5 min 42 sec) 
 Total Blocks : 262144 Invalid Blocks : 0
Finished CPU 5 instructions: 200000001 cycles: 382981576 cumulative IPC: 0.522218 (Simulation time: 18 hr 5 min 43 sec) 
Heartbeat CPU 2 instructions: 400000002 cycles: 475335426 heartbeat IPC: 1.1318 cumulative IPC: 0.522131 (Simulation time: 18 hr 5 min 53 sec) 
 Total Blocks : 262144 Invalid Blocks : 0
Finished CPU 2 instructions: 200000000 cycles: 383042047 cumulative IPC: 0.522136 (Simulation time: 18 hr 5 min 53 sec) 
Heartbeat CPU 7 instructions: 400000002 cycles: 475474303 heartbeat IPC: 1.14624 cumulative IPC: 0.521949 (Simulation time: 18 hr 6 min 14 sec) 
 Total Blocks : 262144 Invalid Blocks : 0
Finished CPU 7 instructions: 200000002 cycles: 383179457 cumulative IPC: 0.521949 (Simulation time: 18 hr 6 min 14 sec) 
Heartbeat CPU 4 instructions: 400000002 cycles: 475868531 heartbeat IPC: 1.27134 cumulative IPC: 0.521407 (Simulation time: 18 hr 7 min 18 sec) 
 Total Blocks : 262144 Invalid Blocks : 0
Finished CPU 4 instructions: 200000001 cycles: 383574962 cumulative IPC: 0.52141 (Simulation time: 18 hr 7 min 19 sec) 
Heartbeat CPU 0 instructions: 400000002 cycles: 476017107 heartbeat IPC: 1.27846 cumulative IPC: 0.521205 (Simulation time: 18 hr 7 min 43 sec) 
 Total Blocks : 262144 Invalid Blocks : 0
Finished CPU 0 instructions: 200000000 cycles: 383723541 cumulative IPC: 0.521209 (Simulation time: 18 hr 7 min 43 sec) 
Heartbeat CPU 6 instructions: 400000002 cycles: 476203881 heartbeat IPC: 1.30052 cumulative IPC: 0.520952 (Simulation time: 18 hr 8 min 13 sec) 
 Total Blocks : 262144 Invalid Blocks : 0
Finished CPU 6 instructions: 200000002 cycles: 383910097 cumulative IPC: 0.520955 (Simulation time: 18 hr 8 min 13 sec) 
Heartbeat CPU 3 instructions: 400000002 cycles: 477826870 heartbeat IPC: 1.41434 cumulative IPC: 0.518759 (Simulation time: 18 hr 12 min 36 sec) 
 Total Blocks : 262144 Invalid Blocks : 0
Finished CPU 3 instructions: 200000001 cycles: 385533094 cumulative IPC: 0.518762 (Simulation time: 18 hr 12 min 37 sec) 

CPU 0 Branch Prediction Accuracy: 96.1377% MPKI: 1.69001 Average ROB Occupancy at Mispredict: 241.878

CPU 1 Branch Prediction Accuracy: 96.1499% MPKI: 1.68235 Average ROB Occupancy at Mispredict: 241.69

CPU 2 Branch Prediction Accuracy: 96.1444% MPKI: 1.68575 Average ROB Occupancy at Mispredict: 242.017

CPU 3 Branch Prediction Accuracy: 96.1209% MPKI: 1.70132 Average ROB Occupancy at Mispredict: 240.838

CPU 4 Branch Prediction Accuracy: 96.1391% MPKI: 1.68913 Average ROB Occupancy at Mispredict: 241.778

CPU 5 Branch Prediction Accuracy: 96.145% MPKI: 1.68546 Average ROB Occupancy at Mispredict: 241.879

CPU 6 Branch Prediction Accuracy: 96.1359% MPKI: 1.69117 Average ROB Occupancy at Mispredict: 241.538

CPU 7 Branch Prediction Accuracy: 96.1431% MPKI: 1.68665 Average ROB Occupancy at Mispredict: 242.041

ChampSim completed all CPUs

Total Simulation Statistics (not including warmup)

CPU 0 cumulative IPC: 0.525336 instructions: 202534451 cycles: 385533094
ITLB TOTAL     ACCESS: 30255126  HIT: 30254946  MISS:   180  HIT %: 99.9994  MISS %: 0.000594941  AVERAGE MISS PENALTY: 126.944
ITLB LOAD      ACCESS: 30255126  HIT: 30254946  MISS:   180  HIT %: 99.9994  MISS %: 0.000594941  AVERAGE MISS PENALTY: 126.944
ITLB RFO       ACCESS:     0  HIT:     0  MISS:     0  HIT %:     0  MISS %:     0  AVERAGE MISS PENALTY: 0
ITLB PREFETCH  ACCESS:     0  HIT:     0  MISS:     0  HIT %:     0  MISS %:     0  AVERAGE MISS PENALTY: 0
ITLB WRITEBACK ACCESS:     0  HIT:     0  MISS:     0  HIT %:     0  MISS %:     0  AVERAGE MISS PENALTY: 0

DTLB TOTAL     ACCESS: 52693401  HIT: 52528887  MISS: 164514  HIT %: 99.6878  MISS %: 0.31221  AVERAGE MISS PENALTY: 37.8522
DTLB LOAD      ACCESS: 46413179  HIT: 46273108  MISS: 140071  HIT %: 99.6982  MISS %: 0.301791  AVERAGE MISS PENALTY: 39.102
DTLB RFO       ACCESS: 6280222  HIT: 6255779  MISS: 24443  HIT %: 99.6108  MISS %: 0.389206  AVERAGE MISS PENALTY: 30.6902
DTLB PREFETCH  ACCESS:     0  HIT:     0  MISS:     0  HIT %:     0  MISS %:     0  AVERAGE MISS PENALTY: 0
DTLB WRITEBACK ACCESS:     0  HIT:     0  MISS:     0  HIT %:     0  MISS %:     0  AVERAGE MISS PENALTY: 0

STLB TOTAL     ACCESS: 164694  HIT: 134235  MISS: 30459  HIT %: 81.5057  MISS %: 18.4943  AVERAGE MISS PENALTY: 100
STLB LOAD      ACCESS: 140251  HIT: 114417  MISS: 25834  HIT %: 81.5802  MISS %: 18.4198  AVERAGE MISS PENALTY: 100
STLB RFO       ACCESS: 24443  HIT: 19818  MISS:  4625  HIT %: 81.0784  MISS %: 18.9216  AVERAGE MISS PENALTY: 100
STLB PREFETCH  ACCESS:     0  HIT:     0  MISS:     0  HIT %:     0  MISS %:     0  AVERAGE MISS PENALTY: 0
STLB WRITEBACK ACCESS:     0  HIT:     0  MISS:     0  HIT %:     0  MISS %:     0  AVERAGE MISS PENALTY: 0

L1D TOTAL     ACCESS: 62534160  HIT: 58121690  MISS: 4412470  HIT %: 92.9439  MISS %: 7.0561  AVERAGE MISS PENALTY: 3.71078e+07
L1D LOAD      ACCESS: 42241173  HIT: 41152462  MISS: 1088711  HIT %: 97.4226  MISS %: 2.57737  AVERAGE MISS PENALTY: 1.50224e+08
L1D RFO       ACCESS: 8167090  HIT: 7575006  MISS: 592084  HIT %: 92.7504  MISS %: 7.24963  AVERAGE MISS PENALTY: 314648
L1D PREFETCH  ACCESS: 12125897  HIT: 9394222  MISS: 2731675  HIT %: 77.4724  MISS %: 22.5276  AVERAGE MISS PENALTY: 229.882
L1D WRITEBACK ACCESS:     0  HIT:     0  MISS:     0  HIT %:     0  MISS %:     0  AVERAGE MISS PENALTY: 0

L1I TOTAL     ACCESS: 42144956  HIT: 42138015  MISS:  6941  HIT %: 99.9835  MISS %: 0.0164693  AVERAGE MISS PENALTY: 735.383
L1I LOAD      ACCESS: 42144956  HIT: 42138015  MISS:  6941  HIT %: 99.9835  MISS %: 0.0164693  AVERAGE MISS PENALTY: 735.383
L1I RFO       ACCESS:     0  HIT:     0  MISS:     0  HIT %:     0  MISS %:     0  AVERAGE MISS PENALTY: 0
L1I PREFETCH  ACCESS:     0  HIT:     0  MISS:     0  HIT %:     0  MISS %:     0  AVERAGE MISS PENALTY: 0
L1I WRITEBACK ACCESS:     0  HIT:     0  MISS:     0  HIT %:     0  MISS %:     0  AVERAGE MISS PENALTY: 0

L2C TOTAL     ACCESS: 9297859  HIT: 5784183  MISS: 3513676  HIT %: 62.2098  MISS %: 37.7902  AVERAGE MISS PENALTY: 4.27743e+07
L2C LOAD      ACCESS: 1071415  HIT: 314634  MISS: 756781  HIT %: 29.3662  MISS %: 70.6338  AVERAGE MISS PENALTY: 1.98583e+08
L2C RFO       ACCESS: 591412  HIT: 158118  MISS: 433294  HIT %: 26.7357  MISS %: 73.2643  AVERAGE MISS PENALTY: 23554.2
L2C PREFETCH  ACCESS: 6186814  HIT: 3877023  MISS: 2309791  HIT %: 62.6659  MISS %: 37.3341  AVERAGE MISS PENALTY: 632.219
L2C WRITEBACK ACCESS: 1448218  HIT: 1434408  MISS: 13810  HIT %: 99.0464  MISS %: 0.953586  AVERAGE MISS PENALTY: 0


LLC0 TOTAL     ACCESS: 584141  HIT: 210077  MISS: 374064  HIT %: 35.9634  MISS %: 64.0366  AVERAGE MISS PENALTY: 856.778
LLC0 LOAD      ACCESS: 65427  HIT: 13742  MISS: 51685  HIT %: 21.0036  MISS %: 78.9964  AVERAGE MISS PENALTY: 864.891
LLC0 RFO       ACCESS: 54251  HIT:  5437  MISS: 48814  HIT %: 10.0219  MISS %: 89.9781  AVERAGE MISS PENALTY: 1183.53
LLC0 PREFETCH  ACCESS: 316064  HIT: 63428  MISS: 252636  HIT %: 20.0681  MISS %: 79.9319  AVERAGE MISS PENALTY: 862.961
LLC0 WRITEBACK ACCESS: 148399  HIT: 127470  MISS: 20929  HIT %: 85.8968  MISS %: 14.1032  AVERAGE MISS PENALTY: 0

LLC1 TOTAL     ACCESS: 584943  HIT: 209990  MISS: 374953  HIT %: 35.8992  MISS %: 64.1008  AVERAGE MISS PENALTY: 856.164
LLC1 LOAD      ACCESS: 32354  HIT:  7450  MISS: 24904  HIT %: 23.0265  MISS %: 76.9735  AVERAGE MISS PENALTY: 991.211
LLC1 RFO       ACCESS: 54183  HIT:  5346  MISS: 48837  HIT %: 9.86656  MISS %: 90.1334  AVERAGE MISS PENALTY: 1177.77
LLC1 PREFETCH  ACCESS: 349970  HIT: 69654  MISS: 280316  HIT %: 19.9028  MISS %: 80.0972  AVERAGE MISS PENALTY: 851.957
LLC1 WRITEBACK ACCESS: 148436  HIT: 127540  MISS: 20896  HIT %: 85.9226  MISS %: 14.0774  AVERAGE MISS PENALTY: 0

LLC2 TOTAL     ACCESS: 586374  HIT: 210841  MISS: 375533  HIT %: 35.9567  MISS %: 64.0433  AVERAGE MISS PENALTY: 873.321
LLC2 LOAD      ACCESS: 26138  HIT:  6432  MISS: 19706  HIT %: 24.6079  MISS %: 75.3921  AVERAGE MISS PENALTY: 993.638
LLC2 RFO       ACCESS: 54212  HIT:  5352  MISS: 48860  HIT %: 9.87235  MISS %: 90.1276  AVERAGE MISS PENALTY: 1142.94
LLC2 PREFETCH  ACCESS: 357440  HIT: 71330  MISS: 286110  HIT %: 19.9558  MISS %: 80.0442  AVERAGE MISS PENALTY: 882.654
LLC2 WRITEBACK ACCESS: 148584  HIT: 127727  MISS: 20857  HIT %: 85.9628  MISS %: 14.0372  AVERAGE MISS PENALTY: 0

LLC3 TOTAL     ACCESS: 585387  HIT: 210562  MISS: 374825  HIT %: 35.9697  MISS %: 64.0303  AVERAGE MISS PENALTY: 867.788
LLC3 LOAD      ACCESS: 24196  HIT:  5871  MISS: 18325  HIT %: 24.2643  MISS %: 75.7357  AVERAGE MISS PENALTY: 1021.48
LLC3 RFO       ACCESS: 54223  HIT:  5353  MISS: 48870  HIT %: 9.87219  MISS %: 90.1278  AVERAGE MISS PENALTY: 1136.17
LLC3 PREFETCH  ACCESS: 358445  HIT: 71613  MISS: 286832  HIT %: 19.9788  MISS %: 80.0212  AVERAGE MISS PENALTY: 875.165
LLC3 WRITEBACK ACCESS: 148523  HIT: 127725  MISS: 20798  HIT %: 85.9968  MISS %: 14.0032  AVERAGE MISS PENALTY: 0

LLC4 TOTAL     ACCESS: 586126  HIT: 210428  MISS: 375698  HIT %: 35.9015  MISS %: 64.0985  AVERAGE MISS PENALTY: 876.469
LLC4 LOAD      ACCESS: 23431  HIT:  5804  MISS: 17627  HIT %: 24.7706  MISS %: 75.2294  AVERAGE MISS PENALTY: 1044.41
LLC4 RFO       ACCESS: 54191  HIT:  5590  MISS: 48601  HIT %: 10.3154  MISS %: 89.6846  AVERAGE MISS PENALTY: 1205.78
LLC4 PREFETCH  ACCESS: 360052  HIT: 71551  MISS: 288501  HIT %: 19.8724  MISS %: 80.1276  AVERAGE MISS PENALTY: 874.436
LLC4 WRITEBACK ACCESS: 148452  HIT: 127483  MISS: 20969  HIT %: 85.8749  MISS %: 14.1251  AVERAGE MISS PENALTY: 0

LLC5 TOTAL     ACCESS: 586478  HIT: 210366  MISS: 376112  HIT %: 35.8694  MISS %: 64.1306  AVERAGE MISS PENALTY: 874.586
LLC5 LOAD      ACCESS: 23435  HIT:  5640  MISS: 17795  HIT %: 24.0666  MISS %: 75.9334  AVERAGE MISS PENALTY: 1061.86
LLC5 RFO       ACCESS: 54088  HIT:  5420  MISS: 48668  HIT %: 10.0207  MISS %: 89.9793  AVERAGE MISS PENALTY: 1189.58
LLC5 PREFETCH  ACCESS: 360591  HIT: 71698  MISS: 288893  HIT %: 19.8835  MISS %: 80.1165  AVERAGE MISS PENALTY: 872.822
LLC5 WRITEBACK ACCESS: 148364  HIT: 127608  MISS: 20756  HIT %: 86.0101  MISS %: 13.9899  AVERAGE MISS PENALTY: 0

LLC6 TOTAL     ACCESS: 586485  HIT: 210359  MISS: 376126  HIT %: 35.8678  MISS %: 64.1322  AVERAGE MISS PENALTY: 886.147
LLC6 LOAD      ACCESS: 23604  HIT:  5672  MISS: 17932  HIT %: 24.0298  MISS %: 75.9702  AVERAGE MISS PENALTY: 1035.86
LLC6 RFO       ACCESS: 54063  HIT:  5415  MISS: 48648  HIT %: 10.0161  MISS %: 89.9839  AVERAGE MISS PENALTY: 1171.61
LLC6 PREFETCH  ACCESS: 360505  HIT: 72060  MISS: 288445  HIT %: 19.9886  MISS %: 80.0114  AVERAGE MISS PENALTY: 893.521
LLC6 WRITEBACK ACCESS: 148313  HIT: 127212  MISS: 21101  HIT %: 85.7727  MISS %: 14.2273  AVERAGE MISS PENALTY: 0

LLC7 TOTAL     ACCESS: 587455  HIT: 211153  MISS: 376302  HIT %: 35.9437  MISS %: 64.0563  AVERAGE MISS PENALTY: 881.295
LLC7 LOAD      ACCESS: 23942  HIT:  5951  MISS: 17991  HIT %: 24.8559  MISS %: 75.1441  AVERAGE MISS PENALTY: 1045.54
LLC7 RFO       ACCESS: 54047  HIT:  5429  MISS: 48618  HIT %: 10.045  MISS %: 89.955  AVERAGE MISS PENALTY: 1155.21
LLC7 PREFETCH  ACCESS: 360992  HIT: 72219  MISS: 288773  HIT %: 20.0057  MISS %: 79.9943  AVERAGE MISS PENALTY: 888.791
LLC7 WRITEBACK ACCESS: 148474  HIT: 127554  MISS: 20920  HIT %: 85.91  MISS %: 14.09  AVERAGE MISS PENALTY: 0

Total Rob stall cycles : 	328989350
Total Load Rob Stall cycles : 	253765169
Average Rob Stall cycles : 	 18
Average Load Rob Stall cycles : 	 76

CPU 1 cumulative IPC: 0.52978 instructions: 204247650 cycles: 385533094
ITLB TOTAL     ACCESS: 30527595  HIT: 30527415  MISS:   180  HIT %: 99.9994  MISS %: 0.00058963  AVERAGE MISS PENALTY: 126.394
ITLB LOAD      ACCESS: 30527595  HIT: 30527415  MISS:   180  HIT %: 99.9994  MISS %: 0.00058963  AVERAGE MISS PENALTY: 126.394
ITLB RFO       ACCESS:     0  HIT:     0  MISS:     0  HIT %:     0  MISS %:     0  AVERAGE MISS PENALTY: 0
ITLB PREFETCH  ACCESS:     0  HIT:     0  MISS:     0  HIT %:     0  MISS %:     0  AVERAGE MISS PENALTY: 0
ITLB WRITEBACK ACCESS:     0  HIT:     0  MISS:     0  HIT %:     0  MISS %:     0  AVERAGE MISS PENALTY: 0

DTLB TOTAL     ACCESS: 53083006  HIT: 52918339  MISS: 164667  HIT %: 99.6898  MISS %: 0.310207  AVERAGE MISS PENALTY: 37.8214
DTLB LOAD      ACCESS: 46762988  HIT: 46622807  MISS: 140181  HIT %: 99.7002  MISS %: 0.299769  AVERAGE MISS PENALTY: 39.1137
DTLB RFO       ACCESS: 6320018  HIT: 6295532  MISS: 24486  HIT %: 99.6126  MISS %: 0.387436  AVERAGE MISS PENALTY: 30.4229
DTLB PREFETCH  ACCESS:     0  HIT:     0  MISS:     0  HIT %:     0  MISS %:     0  AVERAGE MISS PENALTY: 0
DTLB WRITEBACK ACCESS:     0  HIT:     0  MISS:     0  HIT %:     0  MISS %:     0  AVERAGE MISS PENALTY: 0

STLB TOTAL     ACCESS: 164847  HIT: 134368  MISS: 30479  HIT %: 81.5107  MISS %: 18.4893  AVERAGE MISS PENALTY: 100
STLB LOAD      ACCESS: 140361  HIT: 114507  MISS: 25854  HIT %: 81.5804  MISS %: 18.4196  AVERAGE MISS PENALTY: 100
STLB RFO       ACCESS: 24486  HIT: 19861  MISS:  4625  HIT %: 81.1117  MISS %: 18.8883  AVERAGE MISS PENALTY: 100
STLB PREFETCH  ACCESS:     0  HIT:     0  MISS:     0  HIT %:     0  MISS %:     0  AVERAGE MISS PENALTY: 0
STLB WRITEBACK ACCESS:     0  HIT:     0  MISS:     0  HIT %:     0  MISS %:     0  AVERAGE MISS PENALTY: 0

L1D TOTAL     ACCESS: 63022495  HIT: 58602399  MISS: 4420096  HIT %: 92.9865  MISS %: 7.01352  AVERAGE MISS PENALTY: 3.71738e+07
L1D LOAD      ACCESS: 42620775  HIT: 41529739  MISS: 1091036  HIT %: 97.4401  MISS %: 2.55987  AVERAGE MISS PENALTY: 1.50432e+08
L1D RFO       ACCESS: 8220353  HIT: 7628243  MISS: 592110  HIT %: 92.797  MISS %: 7.20298  AVERAGE MISS PENALTY: 311106
L1D PREFETCH  ACCESS: 12181367  HIT: 9444417  MISS: 2736950  HIT %: 77.5317  MISS %: 22.4683  AVERAGE MISS PENALTY: 228.477
L1D WRITEBACK ACCESS:     0  HIT:     0  MISS:     0  HIT %:     0  MISS %:     0  AVERAGE MISS PENALTY: 0

L1I TOTAL     ACCESS: 42535111  HIT: 42528172  MISS:  6939  HIT %: 99.9837  MISS %: 0.0163136  AVERAGE MISS PENALTY: 731.79
L1I LOAD      ACCESS: 42535111  HIT: 42528172  MISS:  6939  HIT %: 99.9837  MISS %: 0.0163136  AVERAGE MISS PENALTY: 731.79
L1I RFO       ACCESS:     0  HIT:     0  MISS:     0  HIT %:     0  MISS %:     0  AVERAGE MISS PENALTY: 0
L1I PREFETCH  ACCESS:     0  HIT:     0  MISS:     0  HIT %:     0  MISS %:     0  AVERAGE MISS PENALTY: 0
L1I WRITEBACK ACCESS:     0  HIT:     0  MISS:     0  HIT %:     0  MISS %:     0  AVERAGE MISS PENALTY: 0

L2C TOTAL     ACCESS: 9308397  HIT: 5822693  MISS: 3485704  HIT %: 62.5531  MISS %: 37.4469  AVERAGE MISS PENALTY: 4.35024e+07
L2C LOAD      ACCESS: 1073794  HIT: 309575  MISS: 764219  HIT %: 28.83  MISS %: 71.17  AVERAGE MISS PENALTY: 1.98405e+08
L2C RFO       ACCESS: 591437  HIT: 153500  MISS: 437937  HIT %: 25.9537  MISS %: 74.0463  AVERAGE MISS PENALTY: 22871.3
L2C PREFETCH  ACCESS: 6191478  HIT: 3925872  MISS: 2265606  HIT %: 63.4077  MISS %: 36.5923  AVERAGE MISS PENALTY: 644.124
L2C WRITEBACK ACCESS: 1451688  HIT: 1433746  MISS: 17942  HIT %: 98.7641  MISS %: 1.23594  AVERAGE MISS PENALTY: 0


LLC0 TOTAL     ACCESS: 579626  HIT: 203964  MISS: 375662  HIT %: 35.1889  MISS %: 64.8111  AVERAGE MISS PENALTY: 836.257
LLC0 LOAD      ACCESS: 65655  HIT: 13508  MISS: 52147  HIT %: 20.5742  MISS %: 79.4258  AVERAGE MISS PENALTY: 848.43
LLC0 RFO       ACCESS: 54834  HIT:  6593  MISS: 48241  HIT %: 12.0236  MISS %: 87.9764  AVERAGE MISS PENALTY: 1067.92
LLC0 PREFETCH  ACCESS: 310876  HIT: 57035  MISS: 253841  HIT %: 18.3465  MISS %: 81.6535  AVERAGE MISS PENALTY: 860.34
LLC0 WRITEBACK ACCESS: 148261  HIT: 126828  MISS: 21433  HIT %: 85.5437  MISS %: 14.4563  AVERAGE MISS PENALTY: 0

LLC1 TOTAL     ACCESS: 581190  HIT: 204641  MISS: 376549  HIT %: 35.2107  MISS %: 64.7893  AVERAGE MISS PENALTY: 835.241
LLC1 LOAD      ACCESS: 32871  HIT:  8003  MISS: 24868  HIT %: 24.3467  MISS %: 75.6533  AVERAGE MISS PENALTY: 934.67
LLC1 RFO       ACCESS: 54796  HIT:  6582  MISS: 48214  HIT %: 12.0118  MISS %: 87.9882  AVERAGE MISS PENALTY: 1072.76
LLC1 PREFETCH  ACCESS: 345302  HIT: 63489  MISS: 281813  HIT %: 18.3865  MISS %: 81.6135  AVERAGE MISS PENALTY: 850.009
LLC1 WRITEBACK ACCESS: 148221  HIT: 126567  MISS: 21654  HIT %: 85.3907  MISS %: 14.6093  AVERAGE MISS PENALTY: 0

LLC2 TOTAL     ACCESS: 581809  HIT: 205088  MISS: 376721  HIT %: 35.2501  MISS %: 64.7499  AVERAGE MISS PENALTY: 855.875
LLC2 LOAD      ACCESS: 26437  HIT:  6690  MISS: 19747  HIT %: 25.3054  MISS %: 74.6946  AVERAGE MISS PENALTY: 950.204
LLC2 RFO       ACCESS: 54750  HIT:  6614  MISS: 48136  HIT %: 12.0804  MISS %: 87.9196  AVERAGE MISS PENALTY: 1036.39
LLC2 PREFETCH  ACCESS: 352444  HIT: 64971  MISS: 287473  HIT %: 18.4344  MISS %: 81.5656  AVERAGE MISS PENALTY: 882.778
LLC2 WRITEBACK ACCESS: 148178  HIT: 126813  MISS: 21365  HIT %: 85.5815  MISS %: 14.4185  AVERAGE MISS PENALTY: 0

LLC3 TOTAL     ACCESS: 580778  HIT: 203974  MISS: 376804  HIT %: 35.1208  MISS %: 64.8792  AVERAGE MISS PENALTY: 849.454
LLC3 LOAD      ACCESS: 24687  HIT:  6408  MISS: 18279  HIT %: 25.957  MISS %: 74.043  AVERAGE MISS PENALTY: 961.248
LLC3 RFO       ACCESS: 54811  HIT:  6645  MISS: 48166  HIT %: 12.1235  MISS %: 87.8765  AVERAGE MISS PENALTY: 1031.23
LLC3 PREFETCH  ACCESS: 353077  HIT: 64100  MISS: 288977  HIT %: 18.1547  MISS %: 81.8453  AVERAGE MISS PENALTY: 874.938
LLC3 WRITEBACK ACCESS: 148203  HIT: 126821  MISS: 21382  HIT %: 85.5725  MISS %: 14.4275  AVERAGE MISS PENALTY: 0

LLC4 TOTAL     ACCESS: 582511  HIT: 205057  MISS: 377454  HIT %: 35.2023  MISS %: 64.7977  AVERAGE MISS PENALTY: 856.54
[...]
LLC1 AVERAGE MISS LATENCY: 858.081 cycles
LLC2 TOTAL     ACCESS: 568895  HIT: 196142  MISS: 372753  HIT %: 34.4777  MISS %: 65.5223  AVERAGE MISS PENALTY: 877.369
LLC2 LOAD      ACCESS: 26586  HIT:  6913  MISS: 19673  HIT %: 26.0024  MISS %: 73.9976  AVERAGE MISS PENALTY: 990.314
LLC2 RFO       ACCESS: 54133  HIT:  5297  MISS: 48836  HIT %: 9.78516  MISS %: 90.2148  AVERAGE MISS PENALTY: 1116.05
LLC2 PREFETCH  ACCESS: 341626  HIT: 57357  MISS: 284269  HIT %: 16.7894  MISS %: 83.2106  AVERAGE MISS PENALTY: 890.2
LLC2 WRITEBACK ACCESS: 146550  HIT: 126575  MISS: 19975  HIT %: 86.3698  MISS %: 13.6302  AVERAGE MISS PENALTY: 0
LLC2 PREFETCH  REQUESTED:     0  ISSUED:     0  USEFUL: 42963  USELESS: 2253670
 USEFUL LOAD PREFETCHES:      42963 PREFETCH ISSUED TO LOWER LEVEL:   32512698  ACCURACY: 0.132142
 TIMELY PREFETCHES:      42963 LATE PREFETCHES: 0 DROPPED PREFETCHES: 0
LLC2 AVERAGE MISS LATENCY: 877.369 cycles
LLC3 TOTAL     ACCESS: 568079  HIT: 195745  MISS: 372334  HIT %: 34.4574  MISS %: 65.5426  AVERAGE MISS PENALTY: 872.28
LLC3 LOAD      ACCESS: 25012  HIT:  6647  MISS: 18365  HIT %: 26.5752  MISS %: 73.4248  AVERAGE MISS PENALTY: 999.94
LLC3 RFO       ACCESS: 54136  HIT:  5269  MISS: 48867  HIT %: 9.73289  MISS %: 90.2671  AVERAGE MISS PENALTY: 1102.56
LLC3 PREFETCH  ACCESS: 342327  HIT: 57261  MISS: 285066  HIT %: 16.727  MISS %: 83.273  AVERAGE MISS PENALTY: 885.889
LLC3 WRITEBACK ACCESS: 146604  HIT: 126568  MISS: 20036  HIT %: 86.3333  MISS %: 13.6667  AVERAGE MISS PENALTY: 0
LLC3 PREFETCH  REQUESTED:     0  ISSUED:     0  USEFUL: 43060  USELESS: 2260947
 USEFUL LOAD PREFETCHES:      43060 PREFETCH ISSUED TO LOWER LEVEL:   32191563  ACCURACY: 0.133762
 TIMELY PREFETCHES:      43060 LATE PREFETCHES: 0 DROPPED PREFETCHES: 0
LLC3 AVERAGE MISS LATENCY: 872.28 cycles
LLC4 TOTAL     ACCESS: 569297  HIT: 196270  MISS: 373027  HIT %: 34.4759  MISS %: 65.5241  AVERAGE MISS PENALTY: 879.296
LLC4 LOAD      ACCESS: 24123  HIT:  6390  MISS: 17733  HIT %: 26.4892  MISS %: 73.5108  AVERAGE MISS PENALTY: 1029.6
LLC4 RFO       ACCESS: 54110  HIT:  5356  MISS: 48754  HIT %: 9.89836  MISS %: 90.1016  AVERAGE MISS PENALTY: 1161.84
LLC4 PREFETCH  ACCESS: 344529  HIT: 57775  MISS: 286754  HIT %: 16.7693  MISS %: 83.2307  AVERAGE MISS PENALTY: 882.636
LLC4 WRITEBACK ACCESS: 146535  HIT: 126749  MISS: 19786  HIT %: 86.4974  MISS %: 13.5026  AVERAGE MISS PENALTY: 0
LLC4 PREFETCH  REQUESTED:     0  ISSUED:     0  USEFUL: 42663  USELESS: 2273237
 USEFUL LOAD PREFETCHES:      42663 PREFETCH ISSUED TO LOWER LEVEL:   38528353  ACCURACY: 0.110731
 TIMELY PREFETCHES:      42663 LATE PREFETCHES: 0 DROPPED PREFETCHES: 0
LLC4 AVERAGE MISS LATENCY: 879.296 cycles
LLC5 TOTAL     ACCESS: 569493  HIT: 195797  MISS: 373696  HIT %: 34.3809  MISS %: 65.6191  AVERAGE MISS PENALTY: 875.515
LLC5 LOAD      ACCESS: 24020  HIT:  6328  MISS: 17692  HIT %: 26.3447  MISS %: 73.6553  AVERAGE MISS PENALTY: 1036.4
LLC5 RFO       ACCESS: 53979  HIT:  5295  MISS: 48684  HIT %: 9.80937  MISS %: 90.1906  AVERAGE MISS PENALTY: 1161.44
LLC5 PREFETCH  ACCESS: 344960  HIT: 57829  MISS: 287131  HIT %: 16.764  MISS %: 83.236  AVERAGE MISS PENALTY: 878.683
LLC5 WRITEBACK ACCESS: 146534  HIT: 126345  MISS: 20189  HIT %: 86.2223  MISS %: 13.7777  AVERAGE MISS PENALTY: 0
LLC5 PREFETCH  REQUESTED:     0  ISSUED:     0  USEFUL: 42509  USELESS: 2275460
 USEFUL LOAD PREFETCHES:      42509 PREFETCH ISSUED TO LOWER LEVEL:   37348144  ACCURACY: 0.113818
 TIMELY PREFETCHES:      42509 LATE PREFETCHES: 0 DROPPED PREFETCHES: 0
LLC5 AVERAGE MISS LATENCY: 875.515 cycles
LLC6 TOTAL     ACCESS: 569919  HIT: 196052  MISS: 373867  HIT %:  34.4  MISS %:  65.6  AVERAGE MISS PENALTY: 886.333
LLC6 LOAD      ACCESS: 24457  HIT:  6472  MISS: 17985  HIT %: 26.4628  MISS %: 73.5372  AVERAGE MISS PENALTY: 1018.77
LLC6 RFO       ACCESS: 53993  HIT:  5332  MISS: 48661  HIT %: 9.87535  MISS %: 90.1246  AVERAGE MISS PENALTY: 1126.49
LLC6 PREFETCH  ACCESS: 344808  HIT: 57749  MISS: 287059  HIT %: 16.7482  MISS %: 83.2518  AVERAGE MISS PENALTY: 899.578
LLC6 WRITEBACK ACCESS: 146661  HIT: 126499  MISS: 20162  HIT %: 86.2527  MISS %: 13.7473  AVERAGE MISS PENALTY: 0
LLC6 PREFETCH  REQUESTED:     0  ISSUED:     0  USEFUL: 42710  USELESS: 2273376
 USEFUL LOAD PREFETCHES:      42710 PREFETCH ISSUED TO LOWER LEVEL:   46424078  ACCURACY: 0.0919997
 TIMELY PREFETCHES:      42710 LATE PREFETCHES: 0 DROPPED PREFETCHES: 0
LLC6 AVERAGE MISS LATENCY: 886.333 cycles
LLC7 TOTAL     ACCESS: 569870  HIT: 196549  MISS: 373321  HIT %: 34.4901  MISS %: 65.5099  AVERAGE MISS PENALTY: 884.848
LLC7 LOAD      ACCESS: 24457  HIT:  6332  MISS: 18125  HIT %: 25.8903  MISS %: 74.1097  AVERAGE MISS PENALTY: 1019.64
LLC7 RFO       ACCESS: 53993  HIT:  5298  MISS: 48695  HIT %: 9.81238  MISS %: 90.1876  AVERAGE MISS PENALTY: 1124.39
LLC7 PREFETCH  ACCESS: 344888  HIT: 58084  MISS: 286804  HIT %: 16.8414  MISS %: 83.1586  AVERAGE MISS PENALTY: 896.428
LLC7 WRITEBACK ACCESS: 146532  HIT: 126835  MISS: 19697  HIT %: 86.5579  MISS %: 13.4421  AVERAGE MISS PENALTY: 0
LLC7 PREFETCH  REQUESTED:     0  ISSUED:     0  USEFUL: 42981  USELESS: 2273087
 USEFUL LOAD PREFETCHES:      42981 PREFETCH ISSUED TO LOWER LEVEL:   47149660  ACCURACY: 0.0911587
 TIMELY PREFETCHES:      42981 LATE PREFETCHES: 0 DROPPED PREFETCHES: 0
LLC7 AVERAGE MISS LATENCY: 884.848 cycles
ROI Average ROB Stall Cycles:	18.5813
ROI Total ROB Stalls Cycles:	329060338
ROI TOTAL ROB counter      :	17709231
ROI Average Load ROB Stall Cycles:	77.4214
ROI Total Load ROB Stalls Cycle  :	254485689
ROI Total Load ROB stalls Counter:	3287022
Major fault: 0 Minor fault: 10906

CPU 7 cumulative IPC: 0.521949 instructions: 200000002 cycles: 383179457
ITLB TOTAL     ACCESS: 29853872  HIT: 29853692  MISS:   180  HIT %: 99.9994  MISS %: 0.000602937  AVERAGE MISS PENALTY: 126.394
ITLB LOAD      ACCESS: 29853872  HIT: 29853692  MISS:   180  HIT %: 99.9994  MISS %: 0.000602937  AVERAGE MISS PENALTY: 126.394
ITLB RFO       ACCESS:     0  HIT:     0  MISS:     0  HIT %:     0  MISS %:     0  AVERAGE MISS PENALTY: 0
ITLB PREFETCH  ACCESS:     0  HIT:     0  MISS:     0  HIT %:     0  MISS %:     0  AVERAGE MISS PENALTY: 0
ITLB WRITEBACK ACCESS:     0  HIT:     0  MISS:     0  HIT %:     0  MISS %:     0  AVERAGE MISS PENALTY: 0
ITLB PREFETCH  REQUESTED:     0  ISSUED:     0  USEFUL:     0  USELESS:     0
 USEFUL LOAD PREFETCHES:          0 PREFETCH ISSUED TO LOWER LEVEL:          0  ACCURACY: -nan
 TIMELY PREFETCHES:          0 LATE PREFETCHES: 0 DROPPED PREFETCHES: 0
ITLB AVERAGE MISS LATENCY: 126.394 cycles
DTLB TOTAL     ACCESS: 52116718  HIT: 51952573  MISS: 164145  HIT %: 99.685  MISS %: 0.314957  AVERAGE MISS PENALTY: 37.9097
DTLB LOAD      ACCESS: 45902873  HIT: 45763104  MISS: 139769  HIT %: 99.6955  MISS %: 0.304489  AVERAGE MISS PENALTY: 39.2017
DTLB RFO       ACCESS: 6213845  HIT: 6189469  MISS: 24376  HIT %: 99.6077  MISS %: 0.392285  AVERAGE MISS PENALTY: 30.5015
DTLB PREFETCH  ACCESS:     0  HIT:     0  MISS:     0  HIT %:     0  MISS %:     0  AVERAGE MISS PENALTY: 0
DTLB WRITEBACK ACCESS:     0  HIT:     0  MISS:     0  HIT %:     0  MISS %:     0  AVERAGE MISS PENALTY: 0
DTLB PREFETCH  REQUESTED:     0  ISSUED:     0  USEFUL:     0  USELESS:     0
 USEFUL LOAD PREFETCHES:          0 PREFETCH ISSUED TO LOWER LEVEL:          0  ACCURACY: -nan
 TIMELY PREFETCHES:          0 LATE PREFETCHES: 0 DROPPED PREFETCHES: 0
DTLB AVERAGE MISS LATENCY: 37.9097 cycles
STLB TOTAL     ACCESS: 164325  HIT: 133903  MISS: 30422  HIT %: 81.4867  MISS %: 18.5133  AVERAGE MISS PENALTY: 100
STLB LOAD      ACCESS: 139949  HIT: 114151  MISS: 25798  HIT %: 81.5661  MISS %: 18.4339  AVERAGE MISS PENALTY: 100
STLB RFO       ACCESS: 24376  HIT: 19752  MISS:  4624  HIT %: 81.0305  MISS %: 18.9695  AVERAGE MISS PENALTY: 100
STLB PREFETCH  ACCESS:     0  HIT:     0  MISS:     0  HIT %:     0  MISS %:     0  AVERAGE MISS PENALTY: 0
STLB WRITEBACK ACCESS:     0  HIT:     0  MISS:     0  HIT %:     0  MISS %:     0  AVERAGE MISS PENALTY: 0
STLB PREFETCH  REQUESTED:     0  ISSUED:     0  USEFUL:     0  USELESS:     0
 USEFUL LOAD PREFETCHES:          0 PREFETCH ISSUED TO LOWER LEVEL:          0  ACCURACY: -nan
 TIMELY PREFETCHES:          0 LATE PREFETCHES: 0 DROPPED PREFETCHES: 0
STLB AVERAGE MISS LATENCY: 100 cycles
L1D TOTAL     ACCESS: 61759300  HIT: 57363197  MISS: 4396103  HIT %: 92.8819  MISS %: 7.11812  AVERAGE MISS PENALTY: 3.73178e+07
L1D LOAD      ACCESS: 41683799  HIT: 40593568  MISS: 1090231  HIT %: 97.3845  MISS %: 2.61548  AVERAGE MISS PENALTY: 1.50289e+08
L1D RFO       ACCESS: 8056858  HIT: 7464864  MISS: 591994  HIT %: 92.6523  MISS %: 7.3477  AVERAGE MISS PENALTY: 342669
L1D PREFETCH  ACCESS: 12018643  HIT: 9304765  MISS: 2713878  HIT %: 77.4194  MISS %: 22.5806  AVERAGE MISS PENALTY: 231.065
L1D WRITEBACK ACCESS:     0  HIT:     0  MISS:     0  HIT %:     0  MISS %:     0  AVERAGE MISS PENALTY: 0
L1D PREFETCH  REQUESTED: 16059651  ISSUED: 14219988  USEFUL: 2539334  USELESS: 174552
 USEFUL LOAD PREFETCHES:    2539334 PREFETCH ISSUED TO LOWER LEVEL:   29971095  ACCURACY: 8.47261
 TIMELY PREFETCHES:    2539334 LATE PREFETCHES: 720695 DROPPED PREFETCHES: 1839663
L1D AVERAGE MISS LATENCY: 46413.6 cycles
L1I TOTAL     ACCESS: 41569519  HIT: 41562614  MISS:  6905  HIT %: 99.9834  MISS %: 0.0166107  AVERAGE MISS PENALTY: 748.998
L1I LOAD      ACCESS: 41569519  HIT: 41562614  MISS:  6905  HIT %: 99.9834  MISS %: 0.0166107  AVERAGE MISS PENALTY: 748.998
L1I RFO       ACCESS:     0  HIT:     0  MISS:     0  HIT %:     0  MISS %:     0  AVERAGE MISS PENALTY: 0
L1I PREFETCH  ACCESS:     0  HIT:     0  MISS:     0  HIT %:     0  MISS %:     0  AVERAGE MISS PENALTY: 0
L1I WRITEBACK ACCESS:     0  HIT:     0  MISS:     0  HIT %:     0  MISS %:     0  AVERAGE MISS PENALTY: 0
L1I PREFETCH  REQUESTED:     0  ISSUED:     0  USEFUL:     0  USELESS:     0
 USEFUL LOAD PREFETCHES:          0 PREFETCH ISSUED TO LOWER LEVEL:          0  ACCURACY: -nan
 TIMELY PREFETCHES:          0 LATE PREFETCHES: 0 DROPPED PREFETCHES: 0
L1I AVERAGE MISS LATENCY: 748.998 cycles
L2C TOTAL     ACCESS: 9246760  HIT: 5531702  MISS: 3715058  HIT %: 59.8231  MISS %: 40.1769  AVERAGE MISS PENALTY: 4.0751e+07
L2C LOAD      ACCESS: 1072936  HIT: 300314  MISS: 772622  HIT %: 27.9899  MISS %: 72.0101  AVERAGE MISS PENALTY: 1.95929e+08
L2C RFO       ACCESS: 591255  HIT: 130974  MISS: 460281  HIT %: 22.1519  MISS %: 77.8481  AVERAGE MISS PENALTY: 25935.6
L2C PREFETCH  ACCESS: 6139591  HIT: 3731358  MISS: 2408233  HIT %: 60.7754  MISS %: 39.2246  AVERAGE MISS PENALTY: 607.269
L2C WRITEBACK ACCESS: 1442978  HIT: 1369056  MISS: 73922  HIT %: 94.8771  MISS %: 5.12288  AVERAGE MISS PENALTY: 0
L2C PREFETCH  REQUESTED: 6342127  ISSUED: 6320480  USEFUL: 220334  USELESS: 2186905
 USEFUL LOAD PREFETCHES:     220334 PREFETCH ISSUED TO LOWER LEVEL:    4893775  ACCURACY: 4.50233
 TIMELY PREFETCHES:     220334 LATE PREFETCHES: 638811 DROPPED PREFETCHES: 21647
L2C AVERAGE MISS LATENCY: 668.339 cycles
LLC0 TOTAL     ACCESS: 604112  HIT: 229506  MISS: 374606  HIT %: 37.9906  MISS %: 62.0094  AVERAGE MISS PENALTY: 853.695
LLC0 LOAD      ACCESS: 67809  HIT: 16081  MISS: 51728  HIT %: 23.7151  MISS %: 76.2849  AVERAGE MISS PENALTY: 856.081
LLC0 RFO       ACCESS: 57676  HIT:  9232  MISS: 48444  HIT %: 16.0067  MISS %: 83.9933  AVERAGE MISS PENALTY: 1181.44
LLC0 PREFETCH  ACCESS: 327054  HIT: 74249  MISS: 252805  HIT %: 22.7024  MISS %: 77.2976  AVERAGE MISS PENALTY: 863.441
LLC0 WRITEBACK ACCESS: 151573  HIT: 129944  MISS: 21629  HIT %: 85.7303  MISS %: 14.2697  AVERAGE MISS PENALTY: 0
LLC0 PREFETCH  REQUESTED:     0  ISSUED:     0  USEFUL: 37434  USELESS: 1991102
 USEFUL LOAD PREFETCHES:      37434 PREFETCH ISSUED TO LOWER LEVEL:   26208969  ACCURACY: 0.142829
 TIMELY PREFETCHES:      37434 LATE PREFETCHES: 0 DROPPED PREFETCHES: 0
LLC0 AVERAGE MISS LATENCY: 853.695 cycles
Deadblocks : 397910 Deadblock percentage : 769.235

LLC1 TOTAL     ACCESS: 605734  HIT: 230633  MISS: 375101  HIT %: 38.075  MISS %: 61.925  AVERAGE MISS PENALTY: 854.281
LLC1 LOAD      ACCESS: 33823  HIT:  8908  MISS: 24915  HIT %: 26.3371  MISS %: 73.6629  AVERAGE MISS PENALTY: 963.522
LLC1 RFO       ACCESS: 57600  HIT:  9046  MISS: 48554  HIT %: 15.7049  MISS %: 84.2951  AVERAGE MISS PENALTY: 1183.17
LLC1 PREFETCH  ACCESS: 362790  HIT: 82694  MISS: 280096  HIT %: 22.7939  MISS %: 77.2061  AVERAGE MISS PENALTY: 853.236
LLC1 WRITEBACK ACCESS: 151521  HIT: 129985  MISS: 21536  HIT %: 85.7868  MISS %: 14.2132  AVERAGE MISS PENALTY: 0
LLC1 PREFETCH  REQUESTED:     0  ISSUED:     0  USEFUL: 43116  USELESS: 2206956
 USEFUL LOAD PREFETCHES:      43116 PREFETCH ISSUED TO LOWER LEVEL:   27577402  ACCURACY: 0.156345
 TIMELY PREFETCHES:      43116 LATE PREFETCHES: 0 DROPPED PREFETCHES: 0
LLC1 AVERAGE MISS LATENCY: 854.281 cycles
LLC2 TOTAL     ACCESS: 606394  HIT: 230894  MISS: 375500  HIT %: 38.0766  MISS %: 61.9234  AVERAGE MISS PENALTY: 871.505
LLC2 LOAD      ACCESS: 27301  HIT:  7687  MISS: 19614  HIT %: 28.1565  MISS %: 71.8435  AVERAGE MISS PENALTY: 974.325
LLC2 RFO       ACCESS: 57563  HIT:  9085  MISS: 48478  HIT %: 15.7827  MISS %: 84.2173  AVERAGE MISS PENALTY: 1149.99
LLC2 PREFETCH  ACCESS: 370058  HIT: 84152  MISS: 285906  HIT %: 22.7402  MISS %: 77.2598  AVERAGE MISS PENALTY: 882.774
LLC2 WRITEBACK ACCESS: 151472  HIT: 129970  MISS: 21502  HIT %: 85.8046  MISS %: 14.1954  AVERAGE MISS PENALTY: 0
LLC2 PREFETCH  REQUESTED:     0  ISSUED:     0  USEFUL: 42963  USELESS: 2253670
 USEFUL LOAD PREFETCHES:      42963 PREFETCH ISSUED TO LOWER LEVEL:   32512698  ACCURACY: 0.132142
 TIMELY PREFETCHES:      42963 LATE PREFETCHES: 0 DROPPED PREFETCHES: 0
LLC2 AVERAGE MISS LATENCY: 871.505 cycles
LLC3 TOTAL     ACCESS: 605865  HIT: 230733  MISS: 375132  HIT %: 38.0832  MISS %: 61.9168  AVERAGE MISS PENALTY: 866.963
LLC3 LOAD      ACCESS: 25681  HIT:  7404  MISS: 18277  HIT %: 28.8307  MISS %: 71.1693  AVERAGE MISS PENALTY: 982.437
LLC3 RFO       ACCESS: 57579  HIT:  9139  MISS: 48440  HIT %: 15.8721  MISS %: 84.1279  AVERAGE MISS PENALTY: 1150.29
LLC3 PREFETCH  ACCESS: 371078  HIT: 84068  MISS: 287010  HIT %: 22.6551  MISS %: 77.3449  AVERAGE MISS PENALTY: 876.448
LLC3 WRITEBACK ACCESS: 151527  HIT: 130122  MISS: 21405  HIT %: 85.8738  MISS %: 14.1262  AVERAGE MISS PENALTY: 0
LLC3 PREFETCH  REQUESTED:     0  ISSUED:     0  USEFUL: 43060  USELESS: 2260947
 USEFUL LOAD PREFETCHES:      43060 PREFETCH ISSUED TO LOWER LEVEL:   32191563  ACCURACY: 0.133762
 TIMELY PREFETCHES:      43060 LATE PREFETCHES: 0 DROPPED PREFETCHES: 0
LLC3 AVERAGE MISS LATENCY: 866.963 cycles
LLC4 TOTAL     ACCESS: 606984  HIT: 230933  MISS: 376051  HIT %: 38.046  MISS %: 61.954  AVERAGE MISS PENALTY: 875.79
LLC4 LOAD      ACCESS: 24923  HIT:  7372  MISS: 17551  HIT %: 29.5791  MISS %: 70.4209  AVERAGE MISS PENALTY: 1033.56
LLC4 RFO       ACCESS: 57489  HIT:  9060  MISS: 48429  HIT %: 15.7595  MISS %: 84.2405  AVERAGE MISS PENALTY: 1210.2
LLC4 PREFETCH  ACCESS: 373056  HIT: 84506  MISS: 288550  HIT %: 22.6524  MISS %: 77.3476  AVERAGE MISS PENALTY: 875.388
LLC4 WRITEBACK ACCESS: 151516  HIT: 129995  MISS: 21521  HIT %: 85.7962  MISS %: 14.2038  AVERAGE MISS PENALTY: 0
LLC4 PREFETCH  REQUESTED:     0  ISSUED:     0  USEFUL: 42663  USELESS: 2273237
 USEFUL LOAD PREFETCHES:      42663 PREFETCH ISSUED TO LOWER LEVEL:   38528353  ACCURACY: 0.110731
 TIMELY PREFETCHES:      42663 LATE PREFETCHES: 0 DROPPED PREFETCHES: 0
LLC4 AVERAGE MISS LATENCY: 875.79 cycles
LLC5 TOTAL     ACCESS: 607952  HIT: 231839  MISS: 376113  HIT %: 38.1344  MISS %: 61.8656  AVERAGE MISS PENALTY: 873.381
LLC5 LOAD      ACCESS: 25248  HIT:  7530  MISS: 17718  HIT %: 29.8241  MISS %: 70.1759  AVERAGE MISS PENALTY: 1030.58
LLC5 RFO       ACCESS: 57465  HIT:  9184  MISS: 48281  HIT %: 15.9819  MISS %: 84.0181  AVERAGE MISS PENALTY: 1206.8
LLC5 PREFETCH  ACCESS: 373673  HIT: 84997  MISS: 288676  HIT %: 22.7464  MISS %: 77.2536  AVERAGE MISS PENALTY: 872.828
LLC5 WRITEBACK ACCESS: 151566  HIT: 130128  MISS: 21438  HIT %: 85.8557  MISS %: 14.1443  AVERAGE MISS PENALTY: 0
LLC5 PREFETCH  REQUESTED:     0  ISSUED:     0  USEFUL: 42509  USELESS: 2275460
 USEFUL LOAD PREFETCHES:      42509 PREFETCH ISSUED TO LOWER LEVEL:   37348144  ACCURACY: 0.113818
 TIMELY PREFETCHES:      42509 LATE PREFETCHES: 0 DROPPED PREFETCHES: 0
LLC5 AVERAGE MISS LATENCY: 873.381 cycles
LLC6 TOTAL     ACCESS: 607694  HIT: 231706  MISS: 375988  HIT %: 38.1287  MISS %: 61.8713  AVERAGE MISS PENALTY: 883.183
LLC6 LOAD      ACCESS: 25167  HIT:  7376  MISS: 17791  HIT %: 29.3082  MISS %: 70.6918  AVERAGE MISS PENALTY: 1014.16
LLC6 RFO       ACCESS: 57428  HIT:  9132  MISS: 48296  HIT %: 15.9017  MISS %: 84.0983  AVERAGE MISS PENALTY: 1176.03
LLC6 PREFETCH  ACCESS: 373540  HIT: 85057  MISS: 288483  HIT %: 22.7705  MISS %: 77.2295  AVERAGE MISS PENALTY: 891.649
LLC6 WRITEBACK ACCESS: 151559  HIT: 130141  MISS: 21418  HIT %: 85.8682  MISS %: 14.1318  AVERAGE MISS PENALTY: 0
LLC6 PREFETCH  REQUESTED:     0  ISSUED:     0  USEFUL: 42710  USELESS: 2273376
 USEFUL LOAD PREFETCHES:      42710 PREFETCH ISSUED TO LOWER LEVEL:   46424078  ACCURACY: 0.0919997
 TIMELY PREFETCHES:      42710 LATE PREFETCHES: 0 DROPPED PREFETCHES: 0
LLC6 AVERAGE MISS LATENCY: 883.183 cycles
LLC7 TOTAL     ACCESS: 608946  HIT: 232558  MISS: 376388  HIT %: 38.1903  MISS %: 61.8097  AVERAGE MISS PENALTY: 879.463
LLC7 LOAD      ACCESS: 25628  HIT:  7626  MISS: 18002  HIT %: 29.7565  MISS %: 70.2435  AVERAGE MISS PENALTY: 1015.59
LLC7 RFO       ACCESS: 57440  HIT:  9168  MISS: 48272  HIT %: 15.961  MISS %: 84.039  AVERAGE MISS PENALTY: 1167.53
LLC7 PREFETCH  ACCESS: 374057  HIT: 85430  MISS: 288627  HIT %: 22.8388  MISS %: 77.1612  AVERAGE MISS PENALTY: 888.267
LLC7 WRITEBACK ACCESS: 151821  HIT: 130334  MISS: 21487  HIT %: 85.8471  MISS %: 14.1529  AVERAGE MISS PENALTY: 0
LLC7 PREFETCH  REQUESTED:     0  ISSUED:     0  USEFUL: 42981  USELESS: 2273087
 USEFUL LOAD PREFETCHES:      42981 PREFETCH ISSUED TO LOWER LEVEL:   47149660  ACCURACY: 0.0911587
 TIMELY PREFETCHES:      42981 LATE PREFETCHES: 0 DROPPED PREFETCHES: 0
LLC7 AVERAGE MISS LATENCY: 879.463 cycles
ROI Average ROB Stall Cycles:	18.4536
ROI Total ROB Stalls Cycles:	326740324
ROI TOTAL ROB counter      :	17706017
ROI Average Load ROB Stall Cycles:	76.8755
ROI Total Load ROB Stalls Cycle  :	252659044
ROI Total Load ROB stalls Counter:	3286602
Major fault: 0 Minor fault: 10906








Interconnect Stats 
LINK 0 BW : 0LINK 1 BW : 0LINK 2 BW : 0LINK 3 BW : 0LINK 4 BW : 0LINK 5 BW : 0LINK 6 BW : 0LINK 7 BW : 0
DRAM Statistics
 CHANNEL 0
 RQ ROW_BUFFER_HIT: 3236013  ROW_BUFFER_MISS: 8115527
 DBUS_CONGESTED: 14336344
 WQ ROW_BUFFER_HIT: 291718  ROW_BUFFER_MISS: 3684171  FULL:     0

 CHANNEL 1
 RQ ROW_BUFFER_HIT: 3240121  ROW_BUFFER_MISS: 8115526
 DBUS_CONGESTED: 14336344
 WQ ROW_BUFFER_HIT: 291926  ROW_BUFFER_MISS: 3682065  FULL:     0

 AVG_CONGESTED_CYCLE: 6
DRAM PAGES: 2097152
Allocated PAGES: 87248
L2C destructor called
L1D destructor called
L1I destructor called
STLB destructor called
DTLB destructor called
ITLB destructor called
L2C destructor called
L1D destructor called
L1I destructor called
STLB destructor called
DTLB destructor called
ITLB destructor called
L2C destructor called
L1D destructor called
L1I destructor called
STLB destructor called
DTLB destructor called
ITLB destructor called
L2C destructor called
L1D destructor called
L1I destructor called
STLB destructor called
DTLB destructor called
ITLB destructor called
L2C destructor called
L1D destructor called
L1I destructor called
STLB destructor called
DTLB destructor called
ITLB destructor called
L2C destructor called
L1D destructor called
L1I destructor called
STLB destructor called
DTLB destructor called
ITLB destructor called
L2C destructor called
L1D destructor called
L1I destructor called
STLB destructor called
DTLB destructor called
ITLB destructor called
L2C destructor called
L1D destructor called
L1I destructor called
STLB destructor called
DTLB destructor called
ITLB destructor called
