
*** ChampSim Multicore Out-of-Order Simulator ***

Warmup Instructions: 200000000
Simulation Instructions: 200000000
Number of CPUs: 8
threads:1

L1I Configuration:
L1I_SET:64
L1I_WAY:8
L1I_RQ_SIZE:64
L1I_WQ_SIZE:64
L1I_PQ_SIZE:8
L1I_MSHR_SIZE:8

L1D Configuration:
L1D_SET:64
L1D_WAY:12
L1D_RQ_SIZE:64
L1D_WQ_SIZE:64
L1D_PQ_SIZE:8
L1D_MSHR_SIZE:16

L2C Configuration:
L2C_SET:1024
L2C_WAY:8
L2C_RQ_SIZE:32
L2C_WQ_SIZE:32
L2C_PQ_SIZE:16
L2C_MSHR_SIZE:32

LLC Configuration:
LLC_SET:2048
LLC_WAY:16
LLC SLICES:8
LLC_RQ_SIZE:64
LLC_WQ_SIZE:64
LLC_PQ_SIZE:32
LLC_MSHR_SIZE:64

Interconnect OFF
Attacker deprioritize is: OFF
Off-chip DRAM Size: 8192 MB Channels: 2 Width: 64-bit Data Rate: 3200 MT/s
PAGE SIZE in KB: 4.000000 
PAGE SIZE in MB: 0.003906 
PAGE offset in bits: 12 
CEASER-S_LLC:0
MIRAGE : 1
CEASER_LATENCY:3
REMAP : OFF
Partitions : 1
Multi-Step : OFF
BFS : OFF

CPU 0 runs /home/anubhav/spec_2017/623.xalancbmk_s-10B.champsimtrace.xz
CPU 1 runs /home/anubhav/spec_2017/623.xalancbmk_s-10B.champsimtrace.xz
CPU 2 runs /home/anubhav/spec_2017/623.xalancbmk_s-10B.champsimtrace.xz
CPU 3 runs /home/anubhav/spec_2017/623.xalancbmk_s-10B.champsimtrace.xz
CPU 4 runs /home/anubhav/spec_2017/623.xalancbmk_s-10B.champsimtrace.xz
CPU 5 runs /home/anubhav/spec_2017/623.xalancbmk_s-10B.champsimtrace.xz
CPU 6 runs /home/anubhav/spec_2017/623.xalancbmk_s-10B.champsimtrace.xz
CPU 7 runs /home/anubhav/spec_2017/623.xalancbmk_s-10B.champsimtrace.xz
CPU 0 Bimodal branch predictor
Initialize Hawkeye state
Initialize Hawkeye state
Initialize Hawkeye state
Initialize Hawkeye state
Initialize Hawkeye state
Initialize Hawkeye state
Initialize Hawkeye state
Initialize Hawkeye state
CPU 1 Bimodal branch predictor
Initialize Hawkeye state
Initialize Hawkeye state
Initialize Hawkeye state
Initialize Hawkeye state
Initialize Hawkeye state
Initialize Hawkeye state
Initialize Hawkeye state
Initialize Hawkeye state
CPU 2 Bimodal branch predictor
Initialize Hawkeye state
Initialize Hawkeye state
Initialize Hawkeye state
Initialize Hawkeye state
Initialize Hawkeye state
Initialize Hawkeye state
Initialize Hawkeye state
Initialize Hawkeye state
CPU 3 Bimodal branch predictor
Initialize Hawkeye state
Initialize Hawkeye state
Initialize Hawkeye state
Initialize Hawkeye state
Initialize Hawkeye state
Initialize Hawkeye state
Initialize Hawkeye state
Initialize Hawkeye state
CPU 4 Bimodal branch predictor
Initialize Hawkeye state
Initialize Hawkeye state
Initialize Hawkeye state
Initialize Hawkeye state
Initialize Hawkeye state
Initialize Hawkeye state
Initialize Hawkeye state
Initialize Hawkeye state
CPU 5 Bimodal branch predictor
Initialize Hawkeye state
Initialize Hawkeye state
Initialize Hawkeye state
Initialize Hawkeye state
Initialize Hawkeye state
Initialize Hawkeye state
Initialize Hawkeye state
Initialize Hawkeye state
CPU 6 Bimodal branch predictor
Initialize Hawkeye state
Initialize Hawkeye state
Initialize Hawkeye state
Initialize Hawkeye state
Initialize Hawkeye state
Initialize Hawkeye state
Initialize Hawkeye state
Initialize Hawkeye state
CPU 7 Bimodal branch predictor
Initialize Hawkeye state
Initialize Hawkeye state
Initialize Hawkeye state
Initialize Hawkeye state
Initialize Hawkeye state
Initialize Hawkeye state
Initialize Hawkeye state
Initialize Hawkeye state
Heartbeat CPU 2 instructions: 10000001 cycles: 7655154 heartbeat IPC: 1.30631 cumulative IPC: 1.30631 (Simulation time: 1 hr 10 min 23 sec) 
 Total Blocks : 262144 Invalid Blocks : 76
Heartbeat CPU 0 instructions: 10000001 cycles: 7655251 heartbeat IPC: 1.30629 cumulative IPC: 1.30629 (Simulation time: 1 hr 10 min 23 sec) 
 Total Blocks : 262144 Invalid Blocks : 76
Heartbeat CPU 1 instructions: 10000001 cycles: 7655294 heartbeat IPC: 1.30629 cumulative IPC: 1.30629 (Simulation time: 1 hr 10 min 23 sec) 
 Total Blocks : 262144 Invalid Blocks : 76
Heartbeat CPU 3 instructions: 10000001 cycles: 7655691 heartbeat IPC: 1.30622 cumulative IPC: 1.30622 (Simulation time: 1 hr 10 min 23 sec) 
 Total Blocks : 262144 Invalid Blocks : 76
Heartbeat CPU 4 instructions: 10000001 cycles: 7655878 heartbeat IPC: 1.30619 cumulative IPC: 1.30619 (Simulation time: 1 hr 10 min 23 sec) 
 Total Blocks : 262144 Invalid Blocks : 76
Heartbeat CPU 5 instructions: 10000001 cycles: 7656225 heartbeat IPC: 1.30613 cumulative IPC: 1.30613 (Simulation time: 1 hr 10 min 23 sec) 
 Total Blocks : 262144 Invalid Blocks : 76
Heartbeat CPU 6 instructions: 10000001 cycles: 7656542 heartbeat IPC: 1.30607 cumulative IPC: 1.30607 (Simulation time: 1 hr 10 min 23 sec) 
 Total Blocks : 262144 Invalid Blocks : 76
Heartbeat CPU 7 instructions: 10000001 cycles: 7656880 heartbeat IPC: 1.30602 cumulative IPC: 1.30602 (Simulation time: 1 hr 10 min 24 sec) 
 Total Blocks : 262144 Invalid Blocks : 76
Heartbeat CPU 0 instructions: 20000000 cycles: 15371388 heartbeat IPC: 1.29599 cumulative IPC: 1.30112 (Simulation time: 1 hr 24 min 21 sec) 
 Total Blocks : 262144 Invalid Blocks : 0
Heartbeat CPU 2 instructions: 20000000 cycles: 15371443 heartbeat IPC: 1.29596 cumulative IPC: 1.30111 (Simulation time: 1 hr 24 min 21 sec) 
 Total Blocks : 262144 Invalid Blocks : 0
Heartbeat CPU 1 instructions: 20000000 cycles: 15371800 heartbeat IPC: 1.29592 cumulative IPC: 1.30108 (Simulation time: 1 hr 24 min 21 sec) 
 Total Blocks : 262144 Invalid Blocks : 0
Heartbeat CPU 3 instructions: 20000000 cycles: 15372689 heartbeat IPC: 1.29584 cumulative IPC: 1.30101 (Simulation time: 1 hr 24 min 21 sec) 
 Total Blocks : 262144 Invalid Blocks : 0
Heartbeat CPU 4 instructions: 20000000 cycles: 15373355 heartbeat IPC: 1.29576 cumulative IPC: 1.30095 (Simulation time: 1 hr 24 min 21 sec) 
 Total Blocks : 262144 Invalid Blocks : 0
Heartbeat CPU 5 instructions: 20000000 cycles: 15373714 heartbeat IPC: 1.29576 cumulative IPC: 1.30092 (Simulation time: 1 hr 24 min 21 sec) 
 Total Blocks : 262144 Invalid Blocks : 0
Heartbeat CPU 6 instructions: 20000000 cycles: 15374179 heartbeat IPC: 1.29573 cumulative IPC: 1.30088 (Simulation time: 1 hr 24 min 21 sec) 
 Total Blocks : 262144 Invalid Blocks : 0
Heartbeat CPU 7 instructions: 20000000 cycles: 15374771 heartbeat IPC: 1.29569 cumulative IPC: 1.30083 (Simulation time: 1 hr 24 min 22 sec) 
 Total Blocks : 262144 Invalid Blocks : 0
Heartbeat CPU 2 instructions: 30000000 cycles: 23080566 heartbeat IPC: 1.29716 cumulative IPC: 1.29979 (Simulation time: 1 hr 38 min 11 sec) 
 Total Blocks : 262144 Invalid Blocks : 0
Heartbeat CPU 1 instructions: 30000000 cycles: 23081235 heartbeat IPC: 1.29711 cumulative IPC: 1.29976 (Simulation time: 1 hr 38 min 11 sec) 
 Total Blocks : 262144 Invalid Blocks : 0
Heartbeat CPU 0 instructions: 30000000 cycles: 23081330 heartbeat IPC: 1.29703 cumulative IPC: 1.29975 (Simulation time: 1 hr 38 min 11 sec) 
 Total Blocks : 262144 Invalid Blocks : 0
Heartbeat CPU 4 instructions: 30000000 cycles: 23083348 heartbeat IPC: 1.29702 cumulative IPC: 1.29964 (Simulation time: 1 hr 38 min 11 sec) 
 Total Blocks : 262144 Invalid Blocks : 0
Heartbeat CPU 3 instructions: 30000000 cycles: 23083583 heartbeat IPC: 1.29687 cumulative IPC: 1.29962 (Simulation time: 1 hr 38 min 11 sec) 
 Total Blocks : 262144 Invalid Blocks : 0
Heartbeat CPU 5 instructions: 30000000 cycles: 23083944 heartbeat IPC: 1.29698 cumulative IPC: 1.2996 (Simulation time: 1 hr 38 min 11 sec) 
 Total Blocks : 262144 Invalid Blocks : 0
Heartbeat CPU 6 instructions: 30000000 cycles: 23084538 heartbeat IPC: 1.29696 cumulative IPC: 1.29957 (Simulation time: 1 hr 38 min 11 sec) 
 Total Blocks : 262144 Invalid Blocks : 0
Heartbeat CPU 7 instructions: 30000000 cycles: 23086674 heartbeat IPC: 1.2967 cumulative IPC: 1.29945 (Simulation time: 1 hr 38 min 12 sec) 
 Total Blocks : 262144 Invalid Blocks : 0
Heartbeat CPU 2 instructions: 40000002 cycles: 30625958 heartbeat IPC: 1.32531 cumulative IPC: 1.30608 (Simulation time: 1 hr 52 min 1 sec) 
 Total Blocks : 262144 Invalid Blocks : 0
Heartbeat CPU 0 instructions: 40000002 cycles: 30626661 heartbeat IPC: 1.32532 cumulative IPC: 1.30605 (Simulation time: 1 hr 52 min 1 sec) 
 Total Blocks : 262144 Invalid Blocks : 0
Heartbeat CPU 1 instructions: 40000002 cycles: 30626990 heartbeat IPC: 1.32525 cumulative IPC: 1.30604 (Simulation time: 1 hr 52 min 1 sec) 
 Total Blocks : 262144 Invalid Blocks : 0
Heartbeat CPU 3 instructions: 40000002 cycles: 30629411 heartbeat IPC: 1.32524 cumulative IPC: 1.30593 (Simulation time: 1 hr 52 min 1 sec) 
 Total Blocks : 262144 Invalid Blocks : 0
Heartbeat CPU 4 instructions: 40000002 cycles: 30629705 heartbeat IPC: 1.32514 cumulative IPC: 1.30592 (Simulation time: 1 hr 52 min 1 sec) 
 Total Blocks : 262144 Invalid Blocks : 0
Heartbeat CPU 5 instructions: 40000002 cycles: 30630413 heartbeat IPC: 1.32512 cumulative IPC: 1.30589 (Simulation time: 1 hr 52 min 2 sec) 
 Total Blocks : 262144 Invalid Blocks : 0
Heartbeat CPU 6 instructions: 40000002 cycles: 30631079 heartbeat IPC: 1.32511 cumulative IPC: 1.30586 (Simulation time: 1 hr 52 min 2 sec) 
 Total Blocks : 262144 Invalid Blocks : 0
Heartbeat CPU 7 instructions: 40000002 cycles: 30633702 heartbeat IPC: 1.32503 cumulative IPC: 1.30575 (Simulation time: 1 hr 52 min 2 sec) 
 Total Blocks : 262144 Invalid Blocks : 0
Heartbeat CPU 2 instructions: 50000001 cycles: 38497300 heartbeat IPC: 1.27043 cumulative IPC: 1.29879 (Simulation time: 2 hr 5 min 38 sec) 
 Total Blocks : 262144 Invalid Blocks : 0
Heartbeat CPU 0 instructions: 50000001 cycles: 38497649 heartbeat IPC: 1.27049 cumulative IPC: 1.29878 (Simulation time: 2 hr 5 min 38 sec) 
 Total Blocks : 262144 Invalid Blocks : 0
Heartbeat CPU 1 instructions: 50000001 cycles: 38498226 heartbeat IPC: 1.27045 cumulative IPC: 1.29876 (Simulation time: 2 hr 5 min 38 sec) 
 Total Blocks : 262144 Invalid Blocks : 0
Heartbeat CPU 3 instructions: 50000001 cycles: 38501394 heartbeat IPC: 1.27033 cumulative IPC: 1.29865 (Simulation time: 2 hr 5 min 38 sec) 
 Total Blocks : 262144 Invalid Blocks : 0
Heartbeat CPU 4 instructions: 50000001 cycles: 38502056 heartbeat IPC: 1.27027 cumulative IPC: 1.29863 (Simulation time: 2 hr 5 min 38 sec) 
 Total Blocks : 262144 Invalid Blocks : 0
Heartbeat CPU 5 instructions: 50000001 cycles: 38502823 heartbeat IPC: 1.27026 cumulative IPC: 1.29861 (Simulation time: 2 hr 5 min 39 sec) 
 Total Blocks : 262144 Invalid Blocks : 0
Heartbeat CPU 6 instructions: 50000001 cycles: 38503656 heartbeat IPC: 1.27023 cumulative IPC: 1.29858 (Simulation time: 2 hr 5 min 39 sec) 
 Total Blocks : 262144 Invalid Blocks : 0
Heartbeat CPU 7 instructions: 50000001 cycles: 38506430 heartbeat IPC: 1.27021 cumulative IPC: 1.29848 (Simulation time: 2 hr 5 min 39 sec) 
 Total Blocks : 262144 Invalid Blocks : 0
Heartbeat CPU 2 instructions: 60000000 cycles: 46173315 heartbeat IPC: 1.30276 cumulative IPC: 1.29945 (Simulation time: 2 hr 20 min 0 sec) 
 Total Blocks : 262144 Invalid Blocks : 0
Heartbeat CPU 0 instructions: 60000000 cycles: 46173390 heartbeat IPC: 1.30281 cumulative IPC: 1.29945 (Simulation time: 2 hr 20 min 0 sec) 
 Total Blocks : 262144 Invalid Blocks : 0
Heartbeat CPU 1 instructions: 60000000 cycles: 46174209 heartbeat IPC: 1.30276 cumulative IPC: 1.29943 (Simulation time: 2 hr 20 min 0 sec) 
 Total Blocks : 262144 Invalid Blocks : 0
Heartbeat CPU 3 instructions: 60000000 cycles: 46177877 heartbeat IPC: 1.30268 cumulative IPC: 1.29932 (Simulation time: 2 hr 20 min 0 sec) 
 Total Blocks : 262144 Invalid Blocks : 0
Heartbeat CPU 4 instructions: 60000000 cycles: 46179136 heartbeat IPC: 1.30258 cumulative IPC: 1.29929 (Simulation time: 2 hr 20 min 0 sec) 
 Total Blocks : 262144 Invalid Blocks : 0
Heartbeat CPU 5 instructions: 60000000 cycles: 46180091 heartbeat IPC: 1.30255 cumulative IPC: 1.29926 (Simulation time: 2 hr 20 min 1 sec) 
 Total Blocks : 262144 Invalid Blocks : 0
Heartbeat CPU 6 instructions: 60000000 cycles: 46180920 heartbeat IPC: 1.30255 cumulative IPC: 1.29924 (Simulation time: 2 hr 20 min 1 sec) 
 Total Blocks : 262144 Invalid Blocks : 0
Heartbeat CPU 7 instructions: 60000000 cycles: 46183936 heartbeat IPC: 1.30251 cumulative IPC: 1.29915 (Simulation time: 2 hr 20 min 1 sec) 
 Total Blocks : 262144 Invalid Blocks : 0
Heartbeat CPU 1 instructions: 70000000 cycles: 53872940 heartbeat IPC: 1.29892 cumulative IPC: 1.29935 (Simulation time: 2 hr 34 min 12 sec) 
 Total Blocks : 262144 Invalid Blocks : 0
Heartbeat CPU 3 instructions: 70000000 cycles: 53876900 heartbeat IPC: 1.29887 cumulative IPC: 1.29926 (Simulation time: 2 hr 34 min 13 sec) 
 Total Blocks : 262144 Invalid Blocks : 0
Heartbeat CPU 5 instructions: 70000000 cycles: 53880008 heartbeat IPC: 1.29872 cumulative IPC: 1.29918 (Simulation time: 2 hr 34 min 13 sec) 
 Total Blocks : 262144 Invalid Blocks : 0
Heartbeat CPU 6 instructions: 70000000 cycles: 53880725 heartbeat IPC: 1.29873 cumulative IPC: 1.29917 (Simulation time: 2 hr 34 min 13 sec) 
 Total Blocks : 262144 Invalid Blocks : 0
Heartbeat CPU 7 instructions: 70000000 cycles: 53883714 heartbeat IPC: 1.29874 cumulative IPC: 1.29909 (Simulation time: 2 hr 34 min 13 sec) 
 Total Blocks : 262144 Invalid Blocks : 0
Heartbeat CPU 0 instructions: 70000000 cycles: 53887744 heartbeat IPC: 1.29628 cumulative IPC: 1.299 (Simulation time: 2 hr 34 min 14 sec) 
 Total Blocks : 262144 Invalid Blocks : 0
Heartbeat CPU 2 instructions: 70000000 cycles: 53887826 heartbeat IPC: 1.29626 cumulative IPC: 1.29899 (Simulation time: 2 hr 34 min 14 sec) 
 Total Blocks : 262144 Invalid Blocks : 0
Heartbeat CPU 4 instructions: 70000000 cycles: 53894325 heartbeat IPC: 1.29614 cumulative IPC: 1.29884 (Simulation time: 2 hr 34 min 15 sec) 
 Total Blocks : 262144 Invalid Blocks : 0
Heartbeat CPU 1 instructions: 80000002 cycles: 61612523 heartbeat IPC: 1.29206 cumulative IPC: 1.29844 (Simulation time: 2 hr 48 min 2 sec) 
 Total Blocks : 262144 Invalid Blocks : 0
Heartbeat CPU 3 instructions: 80000002 cycles: 61616500 heartbeat IPC: 1.29206 cumulative IPC: 1.29835 (Simulation time: 2 hr 48 min 2 sec) 
 Total Blocks : 262144 Invalid Blocks : 0
Heartbeat CPU 5 instructions: 80000002 cycles: 61620404 heartbeat IPC: 1.29192 cumulative IPC: 1.29827 (Simulation time: 2 hr 48 min 3 sec) 
 Total Blocks : 262144 Invalid Blocks : 0
Heartbeat CPU 6 instructions: 80000002 cycles: 61621194 heartbeat IPC: 1.29191 cumulative IPC: 1.29825 (Simulation time: 2 hr 48 min 3 sec) 
 Total Blocks : 262144 Invalid Blocks : 0
Heartbeat CPU 7 instructions: 80000002 cycles: 61624355 heartbeat IPC: 1.29188 cumulative IPC: 1.29819 (Simulation time: 2 hr 48 min 3 sec) 
 Total Blocks : 262144 Invalid Blocks : 0
Heartbeat CPU 2 instructions: 80000002 cycles: 61626956 heartbeat IPC: 1.29214 cumulative IPC: 1.29813 (Simulation time: 2 hr 48 min 3 sec) 
 Total Blocks : 262144 Invalid Blocks : 0
Heartbeat CPU 0 instructions: 80000002 cycles: 61627067 heartbeat IPC: 1.2921 cumulative IPC: 1.29813 (Simulation time: 2 hr 48 min 4 sec) 
 Total Blocks : 262144 Invalid Blocks : 0
Heartbeat CPU 4 instructions: 80000002 cycles: 61634343 heartbeat IPC: 1.29199 cumulative IPC: 1.29798 (Simulation time: 2 hr 48 min 5 sec) 
 Total Blocks : 262144 Invalid Blocks : 0
Heartbeat CPU 1 instructions: 90000002 cycles: 69207303 heartbeat IPC: 1.31669 cumulative IPC: 1.30044 (Simulation time: 3 hr 2 min 3 sec) 
 Total Blocks : 262144 Invalid Blocks : 0
Heartbeat CPU 3 instructions: 90000002 cycles: 69213890 heartbeat IPC: 1.31624 cumulative IPC: 1.30032 (Simulation time: 3 hr 2 min 4 sec) 
 Total Blocks : 262144 Invalid Blocks : 0
Heartbeat CPU 5 instructions: 90000002 cycles: 69215683 heartbeat IPC: 1.31661 cumulative IPC: 1.30028 (Simulation time: 3 hr 2 min 4 sec) 
 Total Blocks : 262144 Invalid Blocks : 0
Heartbeat CPU 6 instructions: 90000002 cycles: 69218927 heartbeat IPC: 1.31618 cumulative IPC: 1.30022 (Simulation time: 3 hr 2 min 5 sec) 
 Total Blocks : 262144 Invalid Blocks : 0
Heartbeat CPU 7 instructions: 90000002 cycles: 69220026 heartbeat IPC: 1.31654 cumulative IPC: 1.3002 (Simulation time: 3 hr 2 min 5 sec) 
 Total Blocks : 262144 Invalid Blocks : 0
Heartbeat CPU 0 instructions: 90000002 cycles: 69221646 heartbeat IPC: 1.31673 cumulative IPC: 1.30017 (Simulation time: 3 hr 2 min 5 sec) 
 Total Blocks : 262144 Invalid Blocks : 0
Heartbeat CPU 2 instructions: 90000002 cycles: 69222306 heartbeat IPC: 1.3166 cumulative IPC: 1.30016 (Simulation time: 3 hr 2 min 5 sec) 
 Total Blocks : 262144 Invalid Blocks : 0
Heartbeat CPU 4 instructions: 90000002 cycles: 69229479 heartbeat IPC: 1.31663 cumulative IPC: 1.30002 (Simulation time: 3 hr 2 min 7 sec) 
 Total Blocks : 262144 Invalid Blocks : 0
Heartbeat CPU 1 instructions: 100000002 cycles: 76915732 heartbeat IPC: 1.29728 cumulative IPC: 1.30012 (Simulation time: 3 hr 15 min 52 sec) 
 Total Blocks : 262144 Invalid Blocks : 0
Heartbeat CPU 3 instructions: 100000002 cycles: 76923017 heartbeat IPC: 1.29716 cumulative IPC: 1.3 (Simulation time: 3 hr 15 min 53 sec) 
 Total Blocks : 262144 Invalid Blocks : 0
Heartbeat CPU 5 instructions: 100000002 cycles: 76925295 heartbeat IPC: 1.29708 cumulative IPC: 1.29996 (Simulation time: 3 hr 15 min 53 sec) 
 Total Blocks : 262144 Invalid Blocks : 0
Heartbeat CPU 6 instructions: 100000002 cycles: 76928903 heartbeat IPC: 1.29702 cumulative IPC: 1.2999 (Simulation time: 3 hr 15 min 54 sec) 
 Total Blocks : 262144 Invalid Blocks : 0
Heartbeat CPU 0 instructions: 100000002 cycles: 76929999 heartbeat IPC: 1.29729 cumulative IPC: 1.29988 (Simulation time: 3 hr 15 min 54 sec) 
 Total Blocks : 262144 Invalid Blocks : 0
Heartbeat CPU 7 instructions: 100000002 cycles: 76930200 heartbeat IPC: 1.29699 cumulative IPC: 1.29988 (Simulation time: 3 hr 15 min 54 sec) 
 Total Blocks : 262144 Invalid Blocks : 0
Heartbeat CPU 2 instructions: 100000002 cycles: 76930947 heartbeat IPC: 1.29725 cumulative IPC: 1.29987 (Simulation time: 3 hr 15 min 54 sec) 
 Total Blocks : 262144 Invalid Blocks : 0
Heartbeat CPU 4 instructions: 100000002 cycles: 76939004 heartbeat IPC: 1.2971 cumulative IPC: 1.29973 (Simulation time: 3 hr 15 min 55 sec) 
 Total Blocks : 262144 Invalid Blocks : 0
Heartbeat CPU 1 instructions: 110000000 cycles: 84414290 heartbeat IPC: 1.33359 cumulative IPC: 1.3031 (Simulation time: 3 hr 30 min 31 sec) 
 Total Blocks : 262144 Invalid Blocks : 0
Heartbeat CPU 3 instructions: 110000000 cycles: 84414536 heartbeat IPC: 1.33484 cumulative IPC: 1.30309 (Simulation time: 3 hr 30 min 31 sec) 
 Total Blocks : 262144 Invalid Blocks : 0
Heartbeat CPU 5 instructions: 110000000 cycles: 84416992 heartbeat IPC: 1.33481 cumulative IPC: 1.30306 (Simulation time: 3 hr 30 min 31 sec) 
 Total Blocks : 262144 Invalid Blocks : 0
Heartbeat CPU 0 instructions: 110000000 cycles: 84421093 heartbeat IPC: 1.33492 cumulative IPC: 1.30299 (Simulation time: 3 hr 30 min 31 sec) 
 Total Blocks : 262144 Invalid Blocks : 0
Heartbeat CPU 6 instructions: 110000000 cycles: 84428200 heartbeat IPC: 1.33346 cumulative IPC: 1.30288 (Simulation time: 3 hr 30 min 32 sec) 
 Total Blocks : 262144 Invalid Blocks : 0
Heartbeat CPU 7 instructions: 110000000 cycles: 84429634 heartbeat IPC: 1.33343 cumulative IPC: 1.30286 (Simulation time: 3 hr 30 min 32 sec) 
 Total Blocks : 262144 Invalid Blocks : 0
Heartbeat CPU 4 instructions: 110000000 cycles: 84437848 heartbeat IPC: 1.33354 cumulative IPC: 1.30273 (Simulation time: 3 hr 30 min 33 sec) 
 Total Blocks : 262144 Invalid Blocks : 0
Heartbeat CPU 2 instructions: 110000000 cycles: 84438213 heartbeat IPC: 1.33204 cumulative IPC: 1.30273 (Simulation time: 3 hr 30 min 33 sec) 
 Total Blocks : 262144 Invalid Blocks : 0
Heartbeat CPU 1 instructions: 120000000 cycles: 91921716 heartbeat IPC: 1.33201 cumulative IPC: 1.30546 (Simulation time: 3 hr 44 min 5 sec) 
 Total Blocks : 262144 Invalid Blocks : 0
Heartbeat CPU 3 instructions: 120000000 cycles: 91922103 heartbeat IPC: 1.33199 cumulative IPC: 1.30545 (Simulation time: 3 hr 44 min 5 sec) 
 Total Blocks : 262144 Invalid Blocks : 0
Heartbeat CPU 5 instructions: 120000000 cycles: 91925142 heartbeat IPC: 1.33189 cumulative IPC: 1.30541 (Simulation time: 3 hr 44 min 5 sec) 
 Total Blocks : 262144 Invalid Blocks : 0
Heartbeat CPU 0 instructions: 120000000 cycles: 91927937 heartbeat IPC: 1.33212 cumulative IPC: 1.30537 (Simulation time: 3 hr 44 min 6 sec) 
 Total Blocks : 262144 Invalid Blocks : 0
Heartbeat CPU 6 instructions: 120000000 cycles: 91936419 heartbeat IPC: 1.33187 cumulative IPC: 1.30525 (Simulation time: 3 hr 44 min 6 sec) 
 Total Blocks : 262144 Invalid Blocks : 0
Heartbeat CPU 7 instructions: 120000000 cycles: 91938154 heartbeat IPC: 1.33182 cumulative IPC: 1.30523 (Simulation time: 3 hr 44 min 6 sec) 
 Total Blocks : 262144 Invalid Blocks : 0
Heartbeat CPU 2 instructions: 120000000 cycles: 91945200 heartbeat IPC: 1.33209 cumulative IPC: 1.30513 (Simulation time: 3 hr 44 min 7 sec) 
 Total Blocks : 262144 Invalid Blocks : 0
Heartbeat CPU 4 instructions: 120000000 cycles: 91945884 heartbeat IPC: 1.33191 cumulative IPC: 1.30512 (Simulation time: 3 hr 44 min 7 sec) 
 Total Blocks : 262144 Invalid Blocks : 0
Heartbeat CPU 1 instructions: 130000001 cycles: 99778072 heartbeat IPC: 1.27285 cumulative IPC: 1.30289 (Simulation time: 3 hr 58 min 4 sec) 
 Total Blocks : 262144 Invalid Blocks : 0
Heartbeat CPU 3 instructions: 130000001 cycles: 99778550 heartbeat IPC: 1.27284 cumulative IPC: 1.30289 (Simulation time: 3 hr 58 min 4 sec) 
 Total Blocks : 262144 Invalid Blocks : 0
Heartbeat CPU 5 instructions: 130000001 cycles: 99782319 heartbeat IPC: 1.27272 cumulative IPC: 1.30284 (Simulation time: 3 hr 58 min 5 sec) 
 Total Blocks : 262144 Invalid Blocks : 0
Heartbeat CPU 0 instructions: 130000001 cycles: 99783922 heartbeat IPC: 1.27292 cumulative IPC: 1.30282 (Simulation time: 3 hr 58 min 5 sec) 
 Total Blocks : 262144 Invalid Blocks : 0
Heartbeat CPU 6 instructions: 130000001 cycles: 99793852 heartbeat IPC: 1.27268 cumulative IPC: 1.30269 (Simulation time: 3 hr 58 min 7 sec) 
 Total Blocks : 262144 Invalid Blocks : 0
Heartbeat CPU 7 instructions: 130000001 cycles: 99796101 heartbeat IPC: 1.2726 cumulative IPC: 1.30266 (Simulation time: 3 hr 58 min 7 sec) 
 Total Blocks : 262144 Invalid Blocks : 0
Heartbeat CPU 2 instructions: 130000001 cycles: 99801403 heartbeat IPC: 1.27288 cumulative IPC: 1.30259 (Simulation time: 3 hr 58 min 7 sec) 
 Total Blocks : 262144 Invalid Blocks : 0
Heartbeat CPU 4 instructions: 130000001 cycles: 99802663 heartbeat IPC: 1.27279 cumulative IPC: 1.30257 (Simulation time: 3 hr 58 min 8 sec) 
 Total Blocks : 262144 Invalid Blocks : 0
Heartbeat CPU 1 instructions: 140000000 cycles: 107524353 heartbeat IPC: 1.29094 cumulative IPC: 1.30203 (Simulation time: 4 hr 12 min 6 sec) 
 Total Blocks : 262144 Invalid Blocks : 0
Heartbeat CPU 3 instructions: 140000000 cycles: 107525154 heartbeat IPC: 1.29089 cumulative IPC: 1.30202 (Simulation time: 4 hr 12 min 6 sec) 
 Total Blocks : 262144 Invalid Blocks : 0
Heartbeat CPU 5 instructions: 140000000 cycles: 107529213 heartbeat IPC: 1.29084 cumulative IPC: 1.30197 (Simulation time: 4 hr 12 min 6 sec) 
 Total Blocks : 262144 Invalid Blocks : 0
Heartbeat CPU 0 instructions: 140000000 cycles: 107529908 heartbeat IPC: 1.29099 cumulative IPC: 1.30196 (Simulation time: 4 hr 12 min 7 sec) 
 Total Blocks : 262144 Invalid Blocks : 0
Heartbeat CPU 6 instructions: 140000000 cycles: 107541303 heartbeat IPC: 1.29075 cumulative IPC: 1.30183 (Simulation time: 4 hr 12 min 8 sec) 
 Total Blocks : 262144 Invalid Blocks : 0
Heartbeat CPU 7 instructions: 140000000 cycles: 107543564 heartbeat IPC: 1.29075 cumulative IPC: 1.3018 (Simulation time: 4 hr 12 min 9 sec) 
 Total Blocks : 262144 Invalid Blocks : 0
Heartbeat CPU 2 instructions: 140000000 cycles: 107547593 heartbeat IPC: 1.29096 cumulative IPC: 1.30175 (Simulation time: 4 hr 12 min 9 sec) 
 Total Blocks : 262144 Invalid Blocks : 0
Heartbeat CPU 4 instructions: 140000000 cycles: 107549693 heartbeat IPC: 1.29082 cumulative IPC: 1.30172 (Simulation time: 4 hr 12 min 9 sec) 
 Total Blocks : 262144 Invalid Blocks : 0
Heartbeat CPU 1 instructions: 150000000 cycles: 114944345 heartbeat IPC: 1.34771 cumulative IPC: 1.30498 (Simulation time: 4 hr 26 min 14 sec) 
 Total Blocks : 262144 Invalid Blocks : 0
Heartbeat CPU 3 instructions: 150000000 cycles: 114944994 heartbeat IPC: 1.34774 cumulative IPC: 1.30497 (Simulation time: 4 hr 26 min 14 sec) 
 Total Blocks : 262144 Invalid Blocks : 0
Heartbeat CPU 0 instructions: 150000000 cycles: 114949659 heartbeat IPC: 1.34775 cumulative IPC: 1.30492 (Simulation time: 4 hr 26 min 14 sec) 
 Total Blocks : 262144 Invalid Blocks : 0
Heartbeat CPU 5 instructions: 150000000 cycles: 114949673 heartbeat IPC: 1.34763 cumulative IPC: 1.30492 (Simulation time: 4 hr 26 min 14 sec) 
 Total Blocks : 262144 Invalid Blocks : 0
Heartbeat CPU 6 instructions: 150000000 cycles: 114961886 heartbeat IPC: 1.3476 cumulative IPC: 1.30478 (Simulation time: 4 hr 26 min 16 sec) 
 Total Blocks : 262144 Invalid Blocks : 0
Heartbeat CPU 7 instructions: 150000000 cycles: 114964472 heartbeat IPC: 1.34754 cumulative IPC: 1.30475 (Simulation time: 4 hr 26 min 16 sec) 
 Total Blocks : 262144 Invalid Blocks : 0
Heartbeat CPU 2 instructions: 150000000 cycles: 114967391 heartbeat IPC: 1.34775 cumulative IPC: 1.30472 (Simulation time: 4 hr 26 min 16 sec) 
 Total Blocks : 262144 Invalid Blocks : 0
Heartbeat CPU 4 instructions: 150000000 cycles: 114969871 heartbeat IPC: 1.34768 cumulative IPC: 1.30469 (Simulation time: 4 hr 26 min 16 sec) 
 Total Blocks : 262144 Invalid Blocks : 0
Heartbeat CPU 1 instructions: 160000003 cycles: 122721693 heartbeat IPC: 1.28579 cumulative IPC: 1.30376 (Simulation time: 4 hr 40 min 5 sec) 
 Total Blocks : 262144 Invalid Blocks : 0
Heartbeat CPU 3 instructions: 160000000 cycles: 122722392 heartbeat IPC: 1.28578 cumulative IPC: 1.30376 (Simulation time: 4 hr 40 min 5 sec) 
 Total Blocks : 262144 Invalid Blocks : 0
Heartbeat CPU 0 instructions: 160000003 cycles: 122726493 heartbeat IPC: 1.28587 cumulative IPC: 1.30371 (Simulation time: 4 hr 40 min 6 sec) 
 Total Blocks : 262144 Invalid Blocks : 0
Heartbeat CPU 5 instructions: 160000003 cycles: 122728042 heartbeat IPC: 1.28562 cumulative IPC: 1.3037 (Simulation time: 4 hr 40 min 6 sec) 
 Total Blocks : 262144 Invalid Blocks : 0
Heartbeat CPU 6 instructions: 160000000 cycles: 122740786 heartbeat IPC: 1.28553 cumulative IPC: 1.30356 (Simulation time: 4 hr 40 min 7 sec) 
 Total Blocks : 262144 Invalid Blocks : 0
Heartbeat CPU 7 instructions: 160000000 cycles: 122743502 heartbeat IPC: 1.28551 cumulative IPC: 1.30353 (Simulation time: 4 hr 40 min 8 sec) 
 Total Blocks : 262144 Invalid Blocks : 0
Heartbeat CPU 2 instructions: 160000000 cycles: 122744403 heartbeat IPC: 1.28584 cumulative IPC: 1.30352 (Simulation time: 4 hr 40 min 8 sec) 
 Total Blocks : 262144 Invalid Blocks : 0
Heartbeat CPU 4 instructions: 160000000 cycles: 122748039 heartbeat IPC: 1.28565 cumulative IPC: 1.30348 (Simulation time: 4 hr 40 min 8 sec) 
 Total Blocks : 262144 Invalid Blocks : 0
Heartbeat CPU 1 instructions: 170000000 cycles: 130370512 heartbeat IPC: 1.30739 cumulative IPC: 1.30398 (Simulation time: 4 hr 53 min 22 sec) 
 Total Blocks : 262144 Invalid Blocks : 0
Heartbeat CPU 3 instructions: 170000000 cycles: 130371303 heartbeat IPC: 1.30738 cumulative IPC: 1.30397 (Simulation time: 4 hr 53 min 22 sec) 
 Total Blocks : 262144 Invalid Blocks : 0
Heartbeat CPU 0 instructions: 170000000 cycles: 130374727 heartbeat IPC: 1.30749 cumulative IPC: 1.30393 (Simulation time: 4 hr 53 min 23 sec) 
 Total Blocks : 262144 Invalid Blocks : 0
Heartbeat CPU 5 instructions: 170000000 cycles: 130377605 heartbeat IPC: 1.30726 cumulative IPC: 1.3039 (Simulation time: 4 hr 53 min 23 sec) 
 Total Blocks : 262144 Invalid Blocks : 0
Heartbeat CPU 6 instructions: 170000000 cycles: 130390380 heartbeat IPC: 1.30726 cumulative IPC: 1.30378 (Simulation time: 4 hr 53 min 24 sec) 
 Total Blocks : 262144 Invalid Blocks : 0
Heartbeat CPU 2 instructions: 170000000 cycles: 130393063 heartbeat IPC: 1.30742 cumulative IPC: 1.30375 (Simulation time: 4 hr 53 min 24 sec) 
 Total Blocks : 262144 Invalid Blocks : 0
Heartbeat CPU 7 instructions: 170000000 cycles: 130393441 heartbeat IPC: 1.3072 cumulative IPC: 1.30375 (Simulation time: 4 hr 53 min 24 sec) 
 Total Blocks : 262144 Invalid Blocks : 0
Heartbeat CPU 4 instructions: 170000000 cycles: 130397321 heartbeat IPC: 1.30731 cumulative IPC: 1.30371 (Simulation time: 4 hr 53 min 25 sec) 
 Total Blocks : 262144 Invalid Blocks : 0
Heartbeat CPU 1 instructions: 180000003 cycles: 137945074 heartbeat IPC: 1.32021 cumulative IPC: 1.30487 (Simulation time: 5 hr 6 min 39 sec) 
 Total Blocks : 262144 Invalid Blocks : 0
Heartbeat CPU 3 instructions: 180000003 cycles: 137947279 heartbeat IPC: 1.31996 cumulative IPC: 1.30485 (Simulation time: 5 hr 6 min 39 sec) 
 Total Blocks : 262144 Invalid Blocks : 0
Heartbeat CPU 0 instructions: 180000003 cycles: 137950133 heartbeat IPC: 1.32006 cumulative IPC: 1.30482 (Simulation time: 5 hr 6 min 39 sec) 
 Total Blocks : 262144 Invalid Blocks : 0
Heartbeat CPU 5 instructions: 180000003 cycles: 137954079 heartbeat IPC: 1.31988 cumulative IPC: 1.30478 (Simulation time: 5 hr 6 min 40 sec) 
 Total Blocks : 262144 Invalid Blocks : 0
Heartbeat CPU 6 instructions: 180000003 cycles: 137966856 heartbeat IPC: 1.31988 cumulative IPC: 1.30466 (Simulation time: 5 hr 6 min 41 sec) 
 Total Blocks : 262144 Invalid Blocks : 0
Heartbeat CPU 2 instructions: 180000003 cycles: 137968518 heartbeat IPC: 1.32005 cumulative IPC: 1.30465 (Simulation time: 5 hr 6 min 41 sec) 
 Total Blocks : 262144 Invalid Blocks : 0
Heartbeat CPU 7 instructions: 180000003 cycles: 137970254 heartbeat IPC: 1.31982 cumulative IPC: 1.30463 (Simulation time: 5 hr 6 min 41 sec) 
 Total Blocks : 262144 Invalid Blocks : 0
Heartbeat CPU 4 instructions: 180000003 cycles: 137973795 heartbeat IPC: 1.31988 cumulative IPC: 1.3046 (Simulation time: 5 hr 6 min 42 sec) 
 Total Blocks : 262144 Invalid Blocks : 0
Heartbeat CPU 1 instructions: 190000000 cycles: 145490623 heartbeat IPC: 1.32528 cumulative IPC: 1.30593 (Simulation time: 5 hr 20 min 23 sec) 
 Total Blocks : 262144 Invalid Blocks : 0
Heartbeat CPU 3 instructions: 190000000 cycles: 145493156 heartbeat IPC: 1.32523 cumulative IPC: 1.3059 (Simulation time: 5 hr 20 min 23 sec) 
 Total Blocks : 262144 Invalid Blocks : 0
Heartbeat CPU 0 instructions: 190000000 cycles: 145495639 heartbeat IPC: 1.32529 cumulative IPC: 1.30588 (Simulation time: 5 hr 20 min 24 sec) 
 Total Blocks : 262144 Invalid Blocks : 0
Heartbeat CPU 5 instructions: 190000000 cycles: 145500755 heartbeat IPC: 1.32509 cumulative IPC: 1.30584 (Simulation time: 5 hr 20 min 24 sec) 
 Total Blocks : 262144 Invalid Blocks : 0
Heartbeat CPU 6 instructions: 190000000 cycles: 145513315 heartbeat IPC: 1.32512 cumulative IPC: 1.30572 (Simulation time: 5 hr 20 min 26 sec) 
 Total Blocks : 262144 Invalid Blocks : 0
Heartbeat CPU 2 instructions: 190000000 cycles: 145514044 heartbeat IPC: 1.32529 cumulative IPC: 1.30572 (Simulation time: 5 hr 20 min 26 sec) 
 Total Blocks : 262144 Invalid Blocks : 0
Heartbeat CPU 7 instructions: 190000000 cycles: 145517138 heartbeat IPC: 1.32505 cumulative IPC: 1.30569 (Simulation time: 5 hr 20 min 27 sec) 
 Total Blocks : 262144 Invalid Blocks : 0
Heartbeat CPU 4 instructions: 190000000 cycles: 145520142 heartbeat IPC: 1.32514 cumulative IPC: 1.30566 (Simulation time: 5 hr 20 min 27 sec) 
 Total Blocks : 262144 Invalid Blocks : 0
Heartbeat CPU 1 instructions: 200000000 cycles: 153092909 heartbeat IPC: 1.31539 cumulative IPC: 1.3064 (Simulation time: 5 hr 33 min 43 sec) 
 Total Blocks : 262144 Invalid Blocks : 0
Heartbeat CPU 3 instructions: 200000000 cycles: 153095369 heartbeat IPC: 1.31541 cumulative IPC: 1.30638 (Simulation time: 5 hr 33 min 44 sec) 
 Total Blocks : 262144 Invalid Blocks : 0
Heartbeat CPU 0 instructions: 200000000 cycles: 153097545 heartbeat IPC: 1.31546 cumulative IPC: 1.30636 (Simulation time: 5 hr 33 min 44 sec) 
 Total Blocks : 262144 Invalid Blocks : 0
Heartbeat CPU 5 instructions: 200000000 cycles: 153103602 heartbeat IPC: 1.3153 cumulative IPC: 1.30631 (Simulation time: 5 hr 33 min 44 sec) 
 Total Blocks : 262144 Invalid Blocks : 0
Heartbeat CPU 6 instructions: 200000000 cycles: 153116127 heartbeat IPC: 1.3153 cumulative IPC: 1.3062 (Simulation time: 5 hr 33 min 46 sec) 
 Total Blocks : 262144 Invalid Blocks : 0
Heartbeat CPU 2 instructions: 200000000 cycles: 153116144 heartbeat IPC: 1.31543 cumulative IPC: 1.3062 (Simulation time: 5 hr 33 min 46 sec) 
 Total Blocks : 262144 Invalid Blocks : 0
Heartbeat CPU 7 instructions: 200000000 cycles: 153120158 heartbeat IPC: 1.31527 cumulative IPC: 1.30616 (Simulation time: 5 hr 33 min 46 sec) 
 Total Blocks : 262144 Invalid Blocks : 0
Heartbeat CPU 4 instructions: 200000000 cycles: 153122497 heartbeat IPC: 1.31538 cumulative IPC: 1.30614 (Simulation time: 5 hr 33 min 47 sec) 
 Total Blocks : 262144 Invalid Blocks : 0

Warmup complete CPU 0 instructions: 200036016 cycles: 153122498 (Simulation time: 5 hr 33 min 47 sec) 
Warmup complete CPU 1 instructions: 200042674 cycles: 153122498 (Simulation time: 5 hr 33 min 47 sec) 
Warmup complete CPU 2 instructions: 200009151 cycles: 153122498 (Simulation time: 5 hr 33 min 47 sec) 
Warmup complete CPU 3 instructions: 200039156 cycles: 153122498 (Simulation time: 5 hr 33 min 47 sec) 
Warmup complete CPU 4 instructions: 200000001 cycles: 153122498 (Simulation time: 5 hr 33 min 47 sec) 
Warmup complete CPU 5 instructions: 200027270 cycles: 153122497 (Simulation time: 5 hr 33 min 47 sec) 
Warmup complete CPU 6 instructions: 200009193 cycles: 153122497 (Simulation time: 5 hr 33 min 47 sec) 
Warmup complete CPU 7 instructions: 200003341 cycles: 153122497 (Simulation time: 5 hr 33 min 47 sec) 

Heartbeat CPU 0 instructions: 210000001 cycles: 204790492 heartbeat IPC: 0.19345 cumulative IPC: 0.192846 (Simulation time: 6 hr 7 min 24 sec) 
 Total Blocks : 262144 Invalid Blocks : 0
Heartbeat CPU 3 instructions: 210000001 cycles: 204794991 heartbeat IPC: 0.193425 cumulative IPC: 0.192769 (Simulation time: 6 hr 7 min 24 sec) 
 Total Blocks : 262144 Invalid Blocks : 0
Heartbeat CPU 5 instructions: 210000001 cycles: 204831033 heartbeat IPC: 0.193321 cumulative IPC: 0.192864 (Simulation time: 6 hr 7 min 25 sec) 
 Total Blocks : 262144 Invalid Blocks : 0
Heartbeat CPU 1 instructions: 210000001 cycles: 204977170 heartbeat IPC: 0.192737 cumulative IPC: 0.192024 (Simulation time: 6 hr 7 min 31 sec) 
 Total Blocks : 262144 Invalid Blocks : 0
Heartbeat CPU 7 instructions: 210000001 cycles: 204988395 heartbeat IPC: 0.192796 cumulative IPC: 0.192741 (Simulation time: 6 hr 7 min 31 sec) 
 Total Blocks : 262144 Invalid Blocks : 0
Heartbeat CPU 2 instructions: 210000001 cycles: 204988953 heartbeat IPC: 0.192779 cumulative IPC: 0.192626 (Simulation time: 6 hr 7 min 32 sec) 
 Total Blocks : 262144 Invalid Blocks : 0
Heartbeat CPU 6 instructions: 210000001 cycles: 205063259 heartbeat IPC: 0.192503 cumulative IPC: 0.19235 (Simulation time: 6 hr 7 min 34 sec) 
 Total Blocks : 262144 Invalid Blocks : 0
Heartbeat CPU 4 instructions: 210000001 cycles: 205121403 heartbeat IPC: 0.192312 cumulative IPC: 0.192312 (Simulation time: 6 hr 7 min 36 sec) 
 Total Blocks : 262144 Invalid Blocks : 0
Heartbeat CPU 5 instructions: 220000000 cycles: 254546781 heartbeat IPC: 0.201143 cumulative IPC: 0.196923 (Simulation time: 6 hr 41 min 42 sec) 
 Total Blocks : 262144 Invalid Blocks : 0
Heartbeat CPU 0 instructions: 220000000 cycles: 254580683 heartbeat IPC: 0.200843 cumulative IPC: 0.196771 (Simulation time: 6 hr 41 min 43 sec) 
 Total Blocks : 262144 Invalid Blocks : 0
Heartbeat CPU 3 instructions: 220000000 cycles: 254618435 heartbeat IPC: 0.200709 cumulative IPC: 0.196666 (Simulation time: 6 hr 41 min 44 sec) 
 Total Blocks : 262144 Invalid Blocks : 0
Heartbeat CPU 1 instructions: 220000000 cycles: 254714105 heartbeat IPC: 0.201058 cumulative IPC: 0.196447 (Simulation time: 6 hr 41 min 48 sec) 
 Total Blocks : 262144 Invalid Blocks : 0
Heartbeat CPU 2 instructions: 220000000 cycles: 254865725 heartbeat IPC: 0.200494 cumulative IPC: 0.196483 (Simulation time: 6 hr 41 min 54 sec) 
 Total Blocks : 262144 Invalid Blocks : 0
Heartbeat CPU 7 instructions: 220000000 cycles: 254874260 heartbeat IPC: 0.200458 cumulative IPC: 0.196524 (Simulation time: 6 hr 41 min 54 sec) 
 Total Blocks : 262144 Invalid Blocks : 0
Heartbeat CPU 6 instructions: 220000000 cycles: 255017363 heartbeat IPC: 0.200184 cumulative IPC: 0.196191 (Simulation time: 6 hr 42 min 0 sec) 
 Total Blocks : 262144 Invalid Blocks : 0
Heartbeat CPU 4 instructions: 220000000 cycles: 255078420 heartbeat IPC: 0.200172 cumulative IPC: 0.196163 (Simulation time: 6 hr 42 min 1 sec) 
 Total Blocks : 262144 Invalid Blocks : 0
Heartbeat CPU 0 instructions: 230000001 cycles: 301262743 heartbeat IPC: 0.214215 cumulative IPC: 0.202268 (Simulation time: 7 hr 15 min 13 sec) 
 Total Blocks : 262144 Invalid Blocks : 0
Heartbeat CPU 5 instructions: 230000001 cycles: 301270057 heartbeat IPC: 0.214026 cumulative IPC: 0.202317 (Simulation time: 7 hr 15 min 13 sec) 
 Total Blocks : 262144 Invalid Blocks : 0
Heartbeat CPU 3 instructions: 230000001 cycles: 301360493 heartbeat IPC: 0.21394 cumulative IPC: 0.202113 (Simulation time: 7 hr 15 min 17 sec) 
 Total Blocks : 262144 Invalid Blocks : 0
Heartbeat CPU 2 instructions: 230000001 cycles: 301528524 heartbeat IPC: 0.214303 cumulative IPC: 0.202086 (Simulation time: 7 hr 15 min 22 sec) 
 Total Blocks : 262144 Invalid Blocks : 0
Heartbeat CPU 1 instructions: 230000001 cycles: 301536801 heartbeat IPC: 0.213572 cumulative IPC: 0.201849 (Simulation time: 7 hr 15 min 23 sec) 
 Total Blocks : 262144 Invalid Blocks : 0
Heartbeat CPU 7 instructions: 230000001 cycles: 301597653 heartbeat IPC: 0.214026 cumulative IPC: 0.202032 (Simulation time: 7 hr 15 min 25 sec) 
 Total Blocks : 262144 Invalid Blocks : 0
Heartbeat CPU 6 instructions: 230000001 cycles: 301736457 heartbeat IPC: 0.214045 cumulative IPC: 0.201803 (Simulation time: 7 hr 15 min 29 sec) 
 Total Blocks : 262144 Invalid Blocks : 0
Heartbeat CPU 4 instructions: 230000001 cycles: 301811170 heartbeat IPC: 0.213983 cumulative IPC: 0.201764 (Simulation time: 7 hr 15 min 32 sec) 
 Total Blocks : 262144 Invalid Blocks : 0
Heartbeat CPU 5 instructions: 240000001 cycles: 353424730 heartbeat IPC: 0.191737 cumulative IPC: 0.199562 (Simulation time: 7 hr 50 min 53 sec) 
 Total Blocks : 262144 Invalid Blocks : 0
Heartbeat CPU 0 instructions: 240000001 cycles: 353436251 heartbeat IPC: 0.191668 cumulative IPC: 0.199507 (Simulation time: 7 hr 50 min 53 sec) 
 Total Blocks : 262144 Invalid Blocks : 0
Heartbeat CPU 3 instructions: 240000001 cycles: 353959379 heartbeat IPC: 0.190118 cumulative IPC: 0.198972 (Simulation time: 7 hr 51 min 11 sec) 
 Total Blocks : 262144 Invalid Blocks : 0
Heartbeat CPU 2 instructions: 240000001 cycles: 354072630 heartbeat IPC: 0.190316 cumulative IPC: 0.199009 (Simulation time: 7 hr 51 min 15 sec) 
 Total Blocks : 262144 Invalid Blocks : 0
Heartbeat CPU 1 instructions: 240000001 cycles: 354128213 heartbeat IPC: 0.190145 cumulative IPC: 0.198787 (Simulation time: 7 hr 51 min 17 sec) 
 Total Blocks : 262144 Invalid Blocks : 0
Heartbeat CPU 7 instructions: 240000001 cycles: 354280060 heartbeat IPC: 0.189817 cumulative IPC: 0.198832 (Simulation time: 7 hr 51 min 22 sec) 
 Total Blocks : 262144 Invalid Blocks : 0
Heartbeat CPU 6 instructions: 240000001 cycles: 354391989 heartbeat IPC: 0.189914 cumulative IPC: 0.198693 (Simulation time: 7 hr 51 min 26 sec) 
 Total Blocks : 262144 Invalid Blocks : 0
Heartbeat CPU 4 instructions: 240000001 cycles: 354473713 heartbeat IPC: 0.189888 cumulative IPC: 0.198658 (Simulation time: 7 hr 51 min 29 sec) 
 Total Blocks : 262144 Invalid Blocks : 0
Heartbeat CPU 5 instructions: 250000000 cycles: 404074048 heartbeat IPC: 0.197436 cumulative IPC: 0.199133 (Simulation time: 8 hr 25 min 20 sec) 
 Total Blocks : 262144 Invalid Blocks : 0
Heartbeat CPU 0 instructions: 250000000 cycles: 404141055 heartbeat IPC: 0.19722 cumulative IPC: 0.199045 (Simulation time: 8 hr 25 min 25 sec) 
 Total Blocks : 262144 Invalid Blocks : 0
Heartbeat CPU 3 instructions: 250000000 cycles: 404658934 heartbeat IPC: 0.19724 cumulative IPC: 0.198623 (Simulation time: 8 hr 25 min 50 sec) 
 Total Blocks : 262144 Invalid Blocks : 0
Heartbeat CPU 2 instructions: 250000000 cycles: 404676277 heartbeat IPC: 0.197614 cumulative IPC: 0.198728 (Simulation time: 8 hr 25 min 51 sec) 
 Total Blocks : 262144 Invalid Blocks : 0
Heartbeat CPU 1 instructions: 250000000 cycles: 404934403 heartbeat IPC: 0.196826 cumulative IPC: 0.198391 (Simulation time: 8 hr 26 min 4 sec) 
 Total Blocks : 262144 Invalid Blocks : 0
Heartbeat CPU 7 instructions: 250000000 cycles: 405247617 heartbeat IPC: 0.196203 cumulative IPC: 0.198301 (Simulation time: 8 hr 26 min 14 sec) 
 Total Blocks : 262144 Invalid Blocks : 0
Heartbeat CPU 6 instructions: 250000000 cycles: 405397857 heartbeat IPC: 0.196056 cumulative IPC: 0.19816 (Simulation time: 8 hr 26 min 20 sec) 
 Total Blocks : 262144 Invalid Blocks : 0
Heartbeat CPU 4 instructions: 250000000 cycles: 405411656 heartbeat IPC: 0.196317 cumulative IPC: 0.198185 (Simulation time: 8 hr 26 min 21 sec) 
 Total Blocks : 262144 Invalid Blocks : 0
Heartbeat CPU 5 instructions: 260000000 cycles: 452218889 heartbeat IPC: 0.207707 cumulative IPC: 0.200513 (Simulation time: 8 hr 59 min 50 sec) 
 Total Blocks : 262144 Invalid Blocks : 0
Heartbeat CPU 0 instructions: 260000000 cycles: 452289097 heartbeat IPC: 0.207693 cumulative IPC: 0.200437 (Simulation time: 8 hr 59 min 53 sec) 
 Total Blocks : 262144 Invalid Blocks : 0
Heartbeat CPU 3 instructions: 260000000 cycles: 452671595 heartbeat IPC: 0.208278 cumulative IPC: 0.20017 (Simulation time: 9 hr 0 min 16 sec) 
 Total Blocks : 262144 Invalid Blocks : 0
Heartbeat CPU 2 instructions: 260000000 cycles: 452700043 heartbeat IPC: 0.20823 cumulative IPC: 0.200251 (Simulation time: 9 hr 0 min 18 sec) 
 Total Blocks : 262144 Invalid Blocks : 0
Heartbeat CPU 1 instructions: 260000000 cycles: 453301991 heartbeat IPC: 0.20675 cumulative IPC: 0.199738 (Simulation time: 9 hr 0 min 52 sec) 
 Total Blocks : 262144 Invalid Blocks : 0
Heartbeat CPU 7 instructions: 260000000 cycles: 453468347 heartbeat IPC: 0.20738 cumulative IPC: 0.199759 (Simulation time: 9 hr 1 min 3 sec) 
 Total Blocks : 262144 Invalid Blocks : 0
Heartbeat CPU 6 instructions: 260000000 cycles: 453518414 heartbeat IPC: 0.207811 cumulative IPC: 0.199706 (Simulation time: 9 hr 1 min 6 sec) 
 Total Blocks : 262144 Invalid Blocks : 0
Heartbeat CPU 4 instructions: 260000000 cycles: 453594982 heartbeat IPC: 0.207541 cumulative IPC: 0.199685 (Simulation time: 9 hr 1 min 9 sec) 
 Total Blocks : 262144 Invalid Blocks : 0
Heartbeat CPU 5 instructions: 270000001 cycles: 503189323 heartbeat IPC: 0.196192 cumulative IPC: 0.199884 (Simulation time: 9 hr 34 min 24 sec) 
 Total Blocks : 262144 Invalid Blocks : 0
Heartbeat CPU 0 instructions: 270000001 cycles: 503325081 heartbeat IPC: 0.19594 cumulative IPC: 0.199781 (Simulation time: 9 hr 34 min 34 sec) 
 Total Blocks : 262144 Invalid Blocks : 0
Heartbeat CPU 3 instructions: 270000001 cycles: 503647033 heartbeat IPC: 0.196173 cumulative IPC: 0.199589 (Simulation time: 9 hr 34 min 56 sec) 
 Total Blocks : 262144 Invalid Blocks : 0
Heartbeat CPU 2 instructions: 270000001 cycles: 503674215 heartbeat IPC: 0.196178 cumulative IPC: 0.199659 (Simulation time: 9 hr 34 min 58 sec) 
 Total Blocks : 262144 Invalid Blocks : 0
Heartbeat CPU 1 instructions: 270000001 cycles: 504090520 heartbeat IPC: 0.196895 cumulative IPC: 0.199327 (Simulation time: 9 hr 35 min 22 sec) 
 Total Blocks : 262144 Invalid Blocks : 0
Heartbeat CPU 7 instructions: 270000001 cycles: 504303904 heartbeat IPC: 0.196713 cumulative IPC: 0.199318 (Simulation time: 9 hr 35 min 33 sec) 
 Total Blocks : 262144 Invalid Blocks : 0
Heartbeat CPU 6 instructions: 270000001 cycles: 504314855 heartbeat IPC: 0.196864 cumulative IPC: 0.199295 (Simulation time: 9 hr 35 min 34 sec) 
 Total Blocks : 262144 Invalid Blocks : 0
Heartbeat CPU 4 instructions: 270000001 cycles: 504450530 heartbeat IPC: 0.196635 cumulative IPC: 0.199244 (Simulation time: 9 hr 35 min 41 sec) 
 Total Blocks : 262144 Invalid Blocks : 0
Heartbeat CPU 5 instructions: 280000000 cycles: 554041005 heartbeat IPC: 0.19665 cumulative IPC: 0.199474 (Simulation time: 10 hr 7 min 39 sec) 
 Total Blocks : 262144 Invalid Blocks : 0
Heartbeat CPU 0 instructions: 280000000 cycles: 554190174 heartbeat IPC: 0.196598 cumulative IPC: 0.199378 (Simulation time: 10 hr 7 min 44 sec) 
 Total Blocks : 262144 Invalid Blocks : 0
Heartbeat CPU 3 instructions: 280000000 cycles: 554544230 heartbeat IPC: 0.196474 cumulative IPC: 0.199194 (Simulation time: 10 hr 7 min 55 sec) 
 Total Blocks : 262144 Invalid Blocks : 0
Heartbeat CPU 2 instructions: 280000000 cycles: 554629954 heartbeat IPC: 0.196249 cumulative IPC: 0.199226 (Simulation time: 10 hr 7 min 58 sec) 
 Total Blocks : 262144 Invalid Blocks : 0
Heartbeat CPU 7 instructions: 280000000 cycles: 555083642 heartbeat IPC: 0.196929 cumulative IPC: 0.199016 (Simulation time: 10 hr 8 min 12 sec) 
 Total Blocks : 262144 Invalid Blocks : 0
Heartbeat CPU 1 instructions: 280000000 cycles: 555093015 heartbeat IPC: 0.196069 cumulative IPC: 0.198913 (Simulation time: 10 hr 8 min 13 sec) 
 Total Blocks : 262144 Invalid Blocks : 0
Heartbeat CPU 6 instructions: 280000000 cycles: 555159935 heartbeat IPC: 0.196676 cumulative IPC: 0.198964 (Simulation time: 10 hr 8 min 15 sec) 
 Total Blocks : 262144 Invalid Blocks : 0
Heartbeat CPU 4 instructions: 280000000 cycles: 555512917 heartbeat IPC: 0.195839 cumulative IPC: 0.198812 (Simulation time: 10 hr 8 min 29 sec) 
 Total Blocks : 262144 Invalid Blocks : 0
Heartbeat CPU 5 instructions: 290000002 cycles: 601840721 heartbeat IPC: 0.209206 cumulative IPC: 0.200511 (Simulation time: 10 hr 39 min 54 sec) 
 Total Blocks : 262144 Invalid Blocks : 0
Heartbeat CPU 0 instructions: 290000002 cycles: 602026860 heartbeat IPC: 0.209045 cumulative IPC: 0.200408 (Simulation time: 10 hr 40 min 4 sec) 
 Total Blocks : 262144 Invalid Blocks : 0
Heartbeat CPU 3 instructions: 290000002 cycles: 602374891 heartbeat IPC: 0.209071 cumulative IPC: 0.200246 (Simulation time: 10 hr 40 min 22 sec) 
 Total Blocks : 262144 Invalid Blocks : 0
Heartbeat CPU 2 instructions: 290000002 cycles: 602531568 heartbeat IPC: 0.208761 cumulative IPC: 0.200243 (Simulation time: 10 hr 40 min 30 sec) 
 Total Blocks : 262144 Invalid Blocks : 0
Heartbeat CPU 1 instructions: 290000002 cycles: 603035423 heartbeat IPC: 0.208584 cumulative IPC: 0.199944 (Simulation time: 10 hr 40 min 59 sec) 
 Total Blocks : 262144 Invalid Blocks : 0
Heartbeat CPU 7 instructions: 290000002 cycles: 603125501 heartbeat IPC: 0.208152 cumulative IPC: 0.199991 (Simulation time: 10 hr 41 min 5 sec) 
 Total Blocks : 262144 Invalid Blocks : 0
Heartbeat CPU 6 instructions: 290000002 cycles: 603276134 heartbeat IPC: 0.20783 cumulative IPC: 0.199911 (Simulation time: 10 hr 41 min 15 sec) 
 Total Blocks : 262144 Invalid Blocks : 0
Heartbeat CPU 4 instructions: 290000002 cycles: 603592208 heartbeat IPC: 0.20799 cumulative IPC: 0.199791 (Simulation time: 10 hr 41 min 40 sec) 
 Total Blocks : 262144 Invalid Blocks : 0
Heartbeat CPU 5 instructions: 300000003 cycles: 650618755 heartbeat IPC: 0.20501 cumulative IPC: 0.200952 (Simulation time: 11 hr 13 min 1 sec) 
 Total Blocks : 262144 Invalid Blocks : 0
Heartbeat CPU 0 instructions: 300000003 cycles: 650880435 heartbeat IPC: 0.204693 cumulative IPC: 0.200829 (Simulation time: 11 hr 13 min 13 sec) 
 Total Blocks : 262144 Invalid Blocks : 0
Heartbeat CPU 3 instructions: 300000002 cycles: 651197991 heartbeat IPC: 0.204821 cumulative IPC: 0.200694 (Simulation time: 11 hr 13 min 28 sec) 
 Total Blocks : 262144 Invalid Blocks : 0
Heartbeat CPU 2 instructions: 300000002 cycles: 651383433 heartbeat IPC: 0.2047 cumulative IPC: 0.20068 (Simulation time: 11 hr 13 min 35 sec) 
 Total Blocks : 262144 Invalid Blocks : 0
Heartbeat CPU 1 instructions: 300000003 cycles: 651869544 heartbeat IPC: 0.204775 cumulative IPC: 0.200417 (Simulation time: 11 hr 13 min 51 sec) 
 Total Blocks : 262144 Invalid Blocks : 0
Heartbeat CPU 7 instructions: 300000002 cycles: 652008074 heartbeat IPC: 0.204572 cumulative IPC: 0.20044 (Simulation time: 11 hr 13 min 55 sec) 
 Total Blocks : 262144 Invalid Blocks : 0
Heartbeat CPU 6 instructions: 300000002 cycles: 652050981 heartbeat IPC: 0.205024 cumulative IPC: 0.200411 (Simulation time: 11 hr 13 min 57 sec) 
 Total Blocks : 262144 Invalid Blocks : 0
Heartbeat CPU 4 instructions: 300000003 cycles: 652224421 heartbeat IPC: 0.205625 cumulative IPC: 0.20036 (Simulation time: 11 hr 14 min 2 sec) 
 Total Blocks : 262144 Invalid Blocks : 0
Heartbeat CPU 5 instructions: 310000000 cycles: 701292429 heartbeat IPC: 0.197341 cumulative IPC: 0.200618 (Simulation time: 11 hr 43 min 46 sec) 
 Total Blocks : 262144 Invalid Blocks : 0
Heartbeat CPU 0 instructions: 310000000 cycles: 701515482 heartbeat IPC: 0.197492 cumulative IPC: 0.20052 (Simulation time: 11 hr 43 min 52 sec) 
 Total Blocks : 262144 Invalid Blocks : 0
Heartbeat CPU 3 instructions: 310000000 cycles: 701786901 heartbeat IPC: 0.197672 cumulative IPC: 0.200415 (Simulation time: 11 hr 44 min 0 sec) 
 Total Blocks : 262144 Invalid Blocks : 0
Heartbeat CPU 2 instructions: 310000000 cycles: 701976550 heartbeat IPC: 0.197655 cumulative IPC: 0.200401 (Simulation time: 11 hr 44 min 7 sec) 
 Total Blocks : 262144 Invalid Blocks : 0
Heartbeat CPU 1 instructions: 310000000 cycles: 702466920 heartbeat IPC: 0.197639 cumulative IPC: 0.200161 (Simulation time: 11 hr 44 min 26 sec) 
 Total Blocks : 262144 Invalid Blocks : 0
Heartbeat CPU 7 instructions: 310000000 cycles: 702615607 heartbeat IPC: 0.197599 cumulative IPC: 0.200178 (Simulation time: 11 hr 44 min 33 sec) 
 Total Blocks : 262144 Invalid Blocks : 0
Heartbeat CPU 6 instructions: 310000000 cycles: 702812614 heartbeat IPC: 0.196999 cumulative IPC: 0.200096 (Simulation time: 11 hr 44 min 41 sec) 
 Total Blocks : 262144 Invalid Blocks : 0
Heartbeat CPU 4 instructions: 310000000 cycles: 702870698 heartbeat IPC: 0.197448 cumulative IPC: 0.200092 (Simulation time: 11 hr 44 min 44 sec) 
 Total Blocks : 262144 Invalid Blocks : 0
Heartbeat CPU 5 instructions: 320000002 cycles: 747738735 heartbeat IPC: 0.215302 cumulative IPC: 0.201765 (Simulation time: 12 hr 12 min 27 sec) 
 Total Blocks : 262144 Invalid Blocks : 0
Heartbeat CPU 0 instructions: 320000002 cycles: 748060182 heartbeat IPC: 0.214847 cumulative IPC: 0.201641 (Simulation time: 12 hr 12 min 43 sec) 
 Total Blocks : 262144 Invalid Blocks : 0
Heartbeat CPU 3 instructions: 320000002 cycles: 748240640 heartbeat IPC: 0.215268 cumulative IPC: 0.201575 (Simulation time: 12 hr 12 min 53 sec) 
 Total Blocks : 262144 Invalid Blocks : 0
Heartbeat CPU 2 instructions: 320000002 cycles: 748443369 heartbeat IPC: 0.215207 cumulative IPC: 0.201557 (Simulation time: 12 hr 13 min 4 sec) 
 Total Blocks : 262144 Invalid Blocks : 0
Heartbeat CPU 1 instructions: 320000002 cycles: 749124586 heartbeat IPC: 0.214327 cumulative IPC: 0.20127 (Simulation time: 12 hr 13 min 36 sec) 
 Total Blocks : 262144 Invalid Blocks : 0
Heartbeat CPU 7 instructions: 320000002 cycles: 749340952 heartbeat IPC: 0.214017 cumulative IPC: 0.201263 (Simulation time: 12 hr 13 min 47 sec) 
 Total Blocks : 262144 Invalid Blocks : 0
Heartbeat CPU 6 instructions: 320000002 cycles: 749500415 heartbeat IPC: 0.214189 cumulative IPC: 0.201199 (Simulation time: 12 hr 13 min 54 sec) 
 Total Blocks : 262144 Invalid Blocks : 0
Heartbeat CPU 4 instructions: 320000002 cycles: 749552397 heartbeat IPC: 0.214217 cumulative IPC: 0.201197 (Simulation time: 12 hr 13 min 57 sec) 
 Total Blocks : 262144 Invalid Blocks : 0
Heartbeat CPU 5 instructions: 330000000 cycles: 799924875 heartbeat IPC: 0.191622 cumulative IPC: 0.200947 (Simulation time: 12 hr 42 min 35 sec) 
 Total Blocks : 262144 Invalid Blocks : 0
Heartbeat CPU 0 instructions: 330000000 cycles: 800325277 heartbeat IPC: 0.191332 cumulative IPC: 0.200809 (Simulation time: 12 hr 42 min 55 sec) 
 Total Blocks : 262144 Invalid Blocks : 0
Heartbeat CPU 3 instructions: 330000000 cycles: 800570532 heartbeat IPC: 0.191095 cumulative IPC: 0.200728 (Simulation time: 12 hr 43 min 5 sec) 
 Total Blocks : 262144 Invalid Blocks : 0
Heartbeat CPU 2 instructions: 330000000 cycles: 800743304 heartbeat IPC: 0.191205 cumulative IPC: 0.200721 (Simulation time: 12 hr 43 min 13 sec) 
 Total Blocks : 262144 Invalid Blocks : 0
Heartbeat CPU 1 instructions: 330000000 cycles: 801412813 heartbeat IPC: 0.191248 cumulative IPC: 0.200462 (Simulation time: 12 hr 43 min 42 sec) 
 Total Blocks : 262144 Invalid Blocks : 0
Heartbeat CPU 6 instructions: 330000000 cycles: 801630613 heartbeat IPC: 0.191827 cumulative IPC: 0.200446 (Simulation time: 12 hr 43 min 52 sec) 
 Total Blocks : 262144 Invalid Blocks : 0
Heartbeat CPU 7 instructions: 330000000 cycles: 801637599 heartbeat IPC: 0.191217 cumulative IPC: 0.200453 (Simulation time: 12 hr 43 min 53 sec) 
 Total Blocks : 262144 Invalid Blocks : 0
Heartbeat CPU 4 instructions: 330000000 cycles: 801669632 heartbeat IPC: 0.191875 cumulative IPC: 0.200448 (Simulation time: 12 hr 43 min 54 sec) 
 Total Blocks : 262144 Invalid Blocks : 0
Heartbeat CPU 5 instructions: 340000001 cycles: 846687287 heartbeat IPC: 0.213847 cumulative IPC: 0.201816 (Simulation time: 13 hr 12 min 26 sec) 
 Total Blocks : 262144 Invalid Blocks : 0
Heartbeat CPU 0 instructions: 340000001 cycles: 847150789 heartbeat IPC: 0.213559 cumulative IPC: 0.201669 (Simulation time: 13 hr 12 min 38 sec) 
 Total Blocks : 262144 Invalid Blocks : 0
Heartbeat CPU 3 instructions: 340000001 cycles: 847444422 heartbeat IPC: 0.213338 cumulative IPC: 0.201579 (Simulation time: 13 hr 12 min 46 sec) 
 Total Blocks : 262144 Invalid Blocks : 0
Heartbeat CPU 2 instructions: 340000001 cycles: 847602910 heartbeat IPC: 0.213403 cumulative IPC: 0.201576 (Simulation time: 13 hr 12 min 51 sec) 
 Total Blocks : 262144 Invalid Blocks : 0
Heartbeat CPU 1 instructions: 340000001 cycles: 848270434 heartbeat IPC: 0.213412 cumulative IPC: 0.201335 (Simulation time: 13 hr 13 min 17 sec) 
 Total Blocks : 262144 Invalid Blocks : 0
Heartbeat CPU 6 instructions: 340000001 cycles: 848459689 heartbeat IPC: 0.213543 cumulative IPC: 0.201328 (Simulation time: 13 hr 13 min 25 sec) 
 Total Blocks : 262144 Invalid Blocks : 0
Heartbeat CPU 4 instructions: 340000001 cycles: 848537801 heartbeat IPC: 0.213364 cumulative IPC: 0.201319 (Simulation time: 13 hr 13 min 28 sec) 
 Total Blocks : 262144 Invalid Blocks : 0
Heartbeat CPU 7 instructions: 340000001 cycles: 848634147 heartbeat IPC: 0.212782 cumulative IPC: 0.201286 (Simulation time: 13 hr 13 min 33 sec) 
 Total Blocks : 262144 Invalid Blocks : 0
Heartbeat CPU 5 instructions: 350000002 cycles: 897881492 heartbeat IPC: 0.195335 cumulative IPC: 0.201371 (Simulation time: 13 hr 41 min 25 sec) 
 Total Blocks : 262144 Invalid Blocks : 0
Heartbeat CPU 0 instructions: 350000002 cycles: 898336664 heartbeat IPC: 0.195366 cumulative IPC: 0.201236 (Simulation time: 13 hr 41 min 38 sec) 
 Total Blocks : 262144 Invalid Blocks : 0
Heartbeat CPU 3 instructions: 350000002 cycles: 898565737 heartbeat IPC: 0.195613 cumulative IPC: 0.20117 (Simulation time: 13 hr 41 min 44 sec) 
 Total Blocks : 262144 Invalid Blocks : 0
Heartbeat CPU 2 instructions: 350000002 cycles: 898669166 heartbeat IPC: 0.195824 cumulative IPC: 0.201182 (Simulation time: 13 hr 41 min 47 sec) 
 Total Blocks : 262144 Invalid Blocks : 0
Heartbeat CPU 1 instructions: 350000002 cycles: 899391858 heartbeat IPC: 0.195613 cumulative IPC: 0.200943 (Simulation time: 13 hr 42 min 9 sec) 
 Total Blocks : 262144 Invalid Blocks : 0
Heartbeat CPU 6 instructions: 350000002 cycles: 899702795 heartbeat IPC: 0.195148 cumulative IPC: 0.200904 (Simulation time: 13 hr 42 min 20 sec) 
 Total Blocks : 262144 Invalid Blocks : 0
Heartbeat CPU 4 instructions: 350000002 cycles: 899794473 heartbeat IPC: 0.195097 cumulative IPC: 0.200891 (Simulation time: 13 hr 42 min 24 sec) 
 Total Blocks : 262144 Invalid Blocks : 0
Heartbeat CPU 7 instructions: 350000002 cycles: 899885764 heartbeat IPC: 0.195116 cumulative IPC: 0.200862 (Simulation time: 13 hr 42 min 28 sec) 
 Total Blocks : 262144 Invalid Blocks : 0
Heartbeat CPU 5 instructions: 360000003 cycles: 943563191 heartbeat IPC: 0.218906 cumulative IPC: 0.202384 (Simulation time: 14 hr 9 min 22 sec) 
 Total Blocks : 262144 Invalid Blocks : 0
Heartbeat CPU 0 instructions: 360000003 cycles: 944138824 heartbeat IPC: 0.21833 cumulative IPC: 0.202226 (Simulation time: 14 hr 9 min 37 sec) 
 Total Blocks : 262144 Invalid Blocks : 0
Heartbeat CPU 3 instructions: 360000003 cycles: 944453797 heartbeat IPC: 0.217922 cumulative IPC: 0.202141 (Simulation time: 14 hr 9 min 45 sec) 
 Total Blocks : 262144 Invalid Blocks : 0
Heartbeat CPU 2 instructions: 360000003 cycles: 944525104 heartbeat IPC: 0.218074 cumulative IPC: 0.202161 (Simulation time: 14 hr 9 min 47 sec) 
 Total Blocks : 262144 Invalid Blocks : 0
Heartbeat CPU 1 instructions: 360000003 cycles: 945169656 heartbeat IPC: 0.218447 cumulative IPC: 0.201954 (Simulation time: 14 hr 10 min 5 sec) 
 Total Blocks : 262144 Invalid Blocks : 0
Heartbeat CPU 6 instructions: 360000003 cycles: 945568977 heartbeat IPC: 0.218026 cumulative IPC: 0.201895 (Simulation time: 14 hr 10 min 16 sec) 
 Total Blocks : 262144 Invalid Blocks : 0
Heartbeat CPU 4 instructions: 360000003 cycles: 945675678 heartbeat IPC: 0.217954 cumulative IPC: 0.201879 (Simulation time: 14 hr 10 min 19 sec) 
 Total Blocks : 262144 Invalid Blocks : 0
Heartbeat CPU 7 instructions: 360000003 cycles: 945705545 heartbeat IPC: 0.218246 cumulative IPC: 0.201867 (Simulation time: 14 hr 10 min 20 sec) 
 Total Blocks : 262144 Invalid Blocks : 0
Heartbeat CPU 5 instructions: 370000000 cycles: 993036272 heartbeat IPC: 0.20213 cumulative IPC: 0.202369 (Simulation time: 14 hr 37 min 17 sec) 
 Total Blocks : 262144 Invalid Blocks : 0
Heartbeat CPU 0 instructions: 370000000 cycles: 993657049 heartbeat IPC: 0.201946 cumulative IPC: 0.202209 (Simulation time: 14 hr 37 min 34 sec) 
 Total Blocks : 262144 Invalid Blocks : 0
Heartbeat CPU 3 instructions: 370000000 cycles: 994012693 heartbeat IPC: 0.20178 cumulative IPC: 0.20212 (Simulation time: 14 hr 37 min 44 sec) 
 Total Blocks : 262144 Invalid Blocks : 0
Heartbeat CPU 2 instructions: 370000000 cycles: 994082689 heartbeat IPC: 0.201785 cumulative IPC: 0.202139 (Simulation time: 14 hr 37 min 46 sec) 
 Total Blocks : 262144 Invalid Blocks : 0
Heartbeat CPU 1 instructions: 370000000 cycles: 994668926 heartbeat IPC: 0.202023 cumulative IPC: 0.201958 (Simulation time: 14 hr 38 min 2 sec) 
 Total Blocks : 262144 Invalid Blocks : 0
Heartbeat CPU 6 instructions: 370000000 cycles: 995165007 heartbeat IPC: 0.201629 cumulative IPC: 0.201879 (Simulation time: 14 hr 38 min 16 sec) 
 Total Blocks : 262144 Invalid Blocks : 0
Heartbeat CPU 7 instructions: 370000000 cycles: 995220094 heartbeat IPC: 0.201961 cumulative IPC: 0.201873 (Simulation time: 14 hr 38 min 18 sec) 
 Total Blocks : 262144 Invalid Blocks : 0
Heartbeat CPU 4 instructions: 370000000 cycles: 995241231 heartbeat IPC: 0.201753 cumulative IPC: 0.201872 (Simulation time: 14 hr 38 min 18 sec) 
 Total Blocks : 262144 Invalid Blocks : 0
Heartbeat CPU 5 instructions: 380000002 cycles: 1042102898 heartbeat IPC: 0.203805 cumulative IPC: 0.202448 (Simulation time: 15 hr 4 min 55 sec) 
 Total Blocks : 262144 Invalid Blocks : 0
Heartbeat CPU 0 instructions: 380000002 cycles: 1042794176 heartbeat IPC: 0.203512 cumulative IPC: 0.202281 (Simulation time: 15 hr 5 min 20 sec) 
 Total Blocks : 262144 Invalid Blocks : 0
Heartbeat CPU 3 instructions: 380000002 cycles: 1043198584 heartbeat IPC: 0.20331 cumulative IPC: 0.202186 (Simulation time: 15 hr 5 min 34 sec) 
 Total Blocks : 262144 Invalid Blocks : 0
Heartbeat CPU 2 instructions: 380000002 cycles: 1043316224 heartbeat IPC: 0.203114 cumulative IPC: 0.202193 (Simulation time: 15 hr 5 min 39 sec) 
 Total Blocks : 262144 Invalid Blocks : 0
Heartbeat CPU 1 instructions: 380000002 cycles: 1043787210 heartbeat IPC: 0.20359 cumulative IPC: 0.202048 (Simulation time: 15 hr 5 min 56 sec) 
 Total Blocks : 262144 Invalid Blocks : 0
Heartbeat CPU 6 instructions: 380000002 cycles: 1044418189 heartbeat IPC: 0.203033 cumulative IPC: 0.201943 (Simulation time: 15 hr 6 min 20 sec) 
 Total Blocks : 262144 Invalid Blocks : 0
Heartbeat CPU 7 instructions: 380000002 cycles: 1044484675 heartbeat IPC: 0.202986 cumulative IPC: 0.201934 (Simulation time: 15 hr 6 min 22 sec) 
 Total Blocks : 262144 Invalid Blocks : 0
Heartbeat CPU 4 instructions: 380000002 cycles: 1044516754 heartbeat IPC: 0.202941 cumulative IPC: 0.201931 (Simulation time: 15 hr 6 min 23 sec) 
 Total Blocks : 262144 Invalid Blocks : 0
Heartbeat CPU 5 instructions: 390000002 cycles: 1095216951 heartbeat IPC: 0.188274 cumulative IPC: 0.201649 (Simulation time: 15 hr 34 min 3 sec) 
 Total Blocks : 262144 Invalid Blocks : 0
Heartbeat CPU 0 instructions: 390000002 cycles: 1095982614 heartbeat IPC: 0.188011 cumulative IPC: 0.201476 (Simulation time: 15 hr 34 min 29 sec) 
 Total Blocks : 262144 Invalid Blocks : 0
Heartbeat CPU 3 instructions: 390000002 cycles: 1096364750 heartbeat IPC: 0.18809 cumulative IPC: 0.201391 (Simulation time: 15 hr 34 min 43 sec) 
 Total Blocks : 262144 Invalid Blocks : 0
Heartbeat CPU 2 instructions: 390000002 cycles: 1096577811 heartbeat IPC: 0.187753 cumulative IPC: 0.201378 (Simulation time: 15 hr 34 min 49 sec) 
 Total Blocks : 262144 Invalid Blocks : 0
Heartbeat CPU 1 instructions: 390000002 cycles: 1096973876 heartbeat IPC: 0.188017 cumulative IPC: 0.201258 (Simulation time: 15 hr 35 min 5 sec) 
 Total Blocks : 262144 Invalid Blocks : 0
Heartbeat CPU 6 instructions: 390000002 cycles: 1097617124 heartbeat IPC: 0.187974 cumulative IPC: 0.201156 (Simulation time: 15 hr 35 min 36 sec) 
 Total Blocks : 262144 Invalid Blocks : 0
Heartbeat CPU 7 instructions: 390000002 cycles: 1097665519 heartbeat IPC: 0.188038 cumulative IPC: 0.201152 (Simulation time: 15 hr 35 min 39 sec) 
 Total Blocks : 262144 Invalid Blocks : 0
Heartbeat CPU 4 instructions: 390000002 cycles: 1097731582 heartbeat IPC: 0.187918 cumulative IPC: 0.201141 (Simulation time: 15 hr 35 min 42 sec) 
 Total Blocks : 262144 Invalid Blocks : 0
Heartbeat CPU 5 instructions: 400000001 cycles: 1148300650 heartbeat IPC: 0.188382 cumulative IPC: 0.200942 (Simulation time: 16 hr 2 min 37 sec) 
 Total Blocks : 262144 Invalid Blocks : 0
Finished CPU 5 instructions: 200000000 cycles: 995282058 cumulative IPC: 0.200948 (Simulation time: 16 hr 2 min 40 sec) 
Heartbeat CPU 0 instructions: 400000001 cycles: 1149000143 heartbeat IPC: 0.188617 cumulative IPC: 0.200792 (Simulation time: 16 hr 2 min 54 sec) 
 Total Blocks : 262144 Invalid Blocks : 0
Finished CPU 0 instructions: 200000001 cycles: 996016088 cumulative IPC: 0.2008 (Simulation time: 16 hr 2 min 58 sec) 
Heartbeat CPU 3 instructions: 400000001 cycles: 1149524098 heartbeat IPC: 0.188114 cumulative IPC: 0.200683 (Simulation time: 16 hr 3 min 12 sec) 
 Total Blocks : 262144 Invalid Blocks : 0
Heartbeat CPU 2 instructions: 400000001 cycles: 1149613440 heartbeat IPC: 0.188552 cumulative IPC: 0.200695 (Simulation time: 16 hr 3 min 16 sec) 
 Total Blocks : 262144 Invalid Blocks : 0
Finished CPU 2 instructions: 200000001 cycles: 996526825 cumulative IPC: 0.200697 (Simulation time: 16 hr 3 min 16 sec) 
Finished CPU 3 instructions: 200000001 cycles: 996555721 cumulative IPC: 0.200691 (Simulation time: 16 hr 3 min 17 sec) 
Heartbeat CPU 1 instructions: 400000003 cycles: 1150083948 heartbeat IPC: 0.188288 cumulative IPC: 0.200567 (Simulation time: 16 hr 3 min 30 sec) 
 Total Blocks : 262144 Invalid Blocks : 0
Finished CPU 1 instructions: 200000000 cycles: 997144365 cumulative IPC: 0.200573 (Simulation time: 16 hr 3 min 38 sec) 
Heartbeat CPU 6 instructions: 400000001 cycles: 1150988479 heartbeat IPC: 0.187366 cumulative IPC: 0.200419 (Simulation time: 16 hr 4 min 5 sec) 
 Total Blocks : 262144 Invalid Blocks : 0
Finished CPU 6 instructions: 200000001 cycles: 997907932 cumulative IPC: 0.200419 (Simulation time: 16 hr 4 min 7 sec) 
Heartbeat CPU 7 instructions: 400000001 cycles: 1151161968 heartbeat IPC: 0.186928 cumulative IPC: 0.20039 (Simulation time: 16 hr 4 min 12 sec) 
 Total Blocks : 262144 Invalid Blocks : 0
Finished CPU 7 instructions: 200000001 cycles: 998054673 cumulative IPC: 0.20039 (Simulation time: 16 hr 4 min 13 sec) 
Heartbeat CPU 4 instructions: 400000001 cycles: 1151200920 heartbeat IPC: 0.187023 cumulative IPC: 0.200385 (Simulation time: 16 hr 4 min 14 sec) 
 Total Blocks : 262144 Invalid Blocks : 0
Finished CPU 4 instructions: 200000000 cycles: 998078422 cumulative IPC: 0.200385 (Simulation time: 16 hr 4 min 14 sec) 

CPU 0 Branch Prediction Accuracy: 94.5662% MPKI: 12.7259 Average ROB Occupancy at Mispredict: 71.0351

CPU 1 Branch Prediction Accuracy: 94.565% MPKI: 12.7267 Average ROB Occupancy at Mispredict: 71.021

CPU 2 Branch Prediction Accuracy: 94.5657% MPKI: 12.7284 Average ROB Occupancy at Mispredict: 71.0246

CPU 3 Branch Prediction Accuracy: 94.5657% MPKI: 12.7265 Average ROB Occupancy at Mispredict: 71.0257

CPU 4 Branch Prediction Accuracy: 94.5639% MPKI: 12.7303 Average ROB Occupancy at Mispredict: 71.0096

CPU 5 Branch Prediction Accuracy: 94.5672% MPKI: 12.7253 Average ROB Occupancy at Mispredict: 71.0453

CPU 6 Branch Prediction Accuracy: 94.564% MPKI: 12.7296 Average ROB Occupancy at Mispredict: 71.0136

CPU 7 Branch Prediction Accuracy: 94.5639% MPKI: 12.73 Average ROB Occupancy at Mispredict: 71.0142

ChampSim completed all CPUs

Total Simulation Statistics (not including warmup)

CPU 0 cumulative IPC: 0.200944 instructions: 200557621 cycles: 998078422
ITLB TOTAL     ACCESS: 28350433  HIT: 28214870  MISS: 135563  HIT %: 99.5218  MISS %: 0.478169  AVERAGE MISS PENALTY: 21.0591
ITLB LOAD      ACCESS: 28350433  HIT: 28214870  MISS: 135563  HIT %: 99.5218  MISS %: 0.478169  AVERAGE MISS PENALTY: 21.0591
ITLB RFO       ACCESS:     0  HIT:     0  MISS:     0  HIT %:     0  MISS %:     0  AVERAGE MISS PENALTY: 0
ITLB PREFETCH  ACCESS:     0  HIT:     0  MISS:     0  HIT %:     0  MISS %:     0  AVERAGE MISS PENALTY: 0
ITLB WRITEBACK ACCESS:     0  HIT:     0  MISS:     0  HIT %:     0  MISS %:     0  AVERAGE MISS PENALTY: 0

DTLB TOTAL     ACCESS: 54270149  HIT: 52940786  MISS: 1329363  HIT %: 97.5505  MISS %: 2.44953  AVERAGE MISS PENALTY: 105.329
DTLB LOAD      ACCESS: 45399167  HIT: 44112516  MISS: 1286651  HIT %: 97.1659  MISS %: 2.83409  AVERAGE MISS PENALTY: 108.339
DTLB RFO       ACCESS: 8870982  HIT: 8828270  MISS: 42712  HIT %: 99.5185  MISS %: 0.48148  AVERAGE MISS PENALTY: 14.6619
DTLB PREFETCH  ACCESS:     0  HIT:     0  MISS:     0  HIT %:     0  MISS %:     0  AVERAGE MISS PENALTY: 0
DTLB WRITEBACK ACCESS:     0  HIT:     0  MISS:     0  HIT %:     0  MISS %:     0  AVERAGE MISS PENALTY: 0

STLB TOTAL     ACCESS: 1464926  HIT: 490933  MISS: 973993  HIT %: 33.5125  MISS %: 66.4875  AVERAGE MISS PENALTY: 100
STLB LOAD      ACCESS: 1422214  HIT: 450370  MISS: 971844  HIT %: 31.6668  MISS %: 68.3332  AVERAGE MISS PENALTY: 100
STLB RFO       ACCESS: 42712  HIT: 40563  MISS:  2149  HIT %: 94.9686  MISS %: 5.03137  AVERAGE MISS PENALTY: 100
STLB PREFETCH  ACCESS:     0  HIT:     0  MISS:     0  HIT %:     0  MISS %:     0  AVERAGE MISS PENALTY: 0
STLB WRITEBACK ACCESS:     0  HIT:     0  MISS:     0  HIT %:     0  MISS %:     0  AVERAGE MISS PENALTY: 0

L1D TOTAL     ACCESS: 55049120  HIT: 48015227  MISS: 7033893  HIT %: 87.2225  MISS %: 12.7775  AVERAGE MISS PENALTY: 6.82843e+06
L1D LOAD      ACCESS: 35883646  HIT: 31037347  MISS: 4846299  HIT %: 86.4944  MISS %: 13.5056  AVERAGE MISS PENALTY: 9.80898e+06
L1D RFO       ACCESS: 9705087  HIT: 9619397  MISS: 85690  HIT %: 99.1171  MISS %: 0.882939  AVERAGE MISS PENALTY: 5.7516e+06
L1D PREFETCH  ACCESS: 9460387  HIT: 7358483  MISS: 2101904  HIT %: 77.7821  MISS %: 22.2179  AVERAGE MISS PENALTY: 165.524
L1D WRITEBACK ACCESS:     0  HIT:     0  MISS:     0  HIT %:     0  MISS %:     0  AVERAGE MISS PENALTY: 0

L1I TOTAL     ACCESS: 35885951  HIT: 35156604  MISS: 729347  HIT %: 97.9676  MISS %: 2.0324  AVERAGE MISS PENALTY: 45.8316
L1I LOAD      ACCESS: 35885951  HIT: 35156604  MISS: 729347  HIT %: 97.9676  MISS %: 2.0324  AVERAGE MISS PENALTY: 45.8316
L1I RFO       ACCESS:     0  HIT:     0  MISS:     0  HIT %:     0  MISS %:     0  AVERAGE MISS PENALTY: 0
L1I PREFETCH  ACCESS:     0  HIT:     0  MISS:     0  HIT %:     0  MISS %:     0  AVERAGE MISS PENALTY: 0
L1I WRITEBACK ACCESS:     0  HIT:     0  MISS:     0  HIT %:     0  MISS %:     0  AVERAGE MISS PENALTY: 0

L2C TOTAL     ACCESS: 9484160  HIT: 2751426  MISS: 6732734  HIT %: 29.0108  MISS %: 70.9892  AVERAGE MISS PENALTY: 5.62729e+06
L2C LOAD      ACCESS: 5570160  HIT: 1004765  MISS: 4565395  HIT %: 18.0384  MISS %: 81.9616  AVERAGE MISS PENALTY: 8.26882e+06
L2C RFO       ACCESS: 84904  HIT: 48907  MISS: 35997  HIT %: 57.6027  MISS %: 42.3973  AVERAGE MISS PENALTY: 3.78298e+06
L2C PREFETCH  ACCESS: 3613749  HIT: 1485822  MISS: 2127927  HIT %: 41.1158  MISS %: 58.8842  AVERAGE MISS PENALTY: 201.886
L2C WRITEBACK ACCESS: 215347  HIT: 211932  MISS:  3415  HIT %: 98.4142  MISS %: 1.58581  AVERAGE MISS PENALTY: 0


LLC0 TOTAL     ACCESS: 842857  HIT: 230502  MISS: 612355  HIT %: 27.3477  MISS %: 72.6523  AVERAGE MISS PENALTY: 215.553
LLC0 LOAD      ACCESS: 565264  HIT: 146497  MISS: 418767  HIT %: 25.9166  MISS %: 74.0834  AVERAGE MISS PENALTY: 212.05
LLC0 RFO       ACCESS:  4518  HIT:  1045  MISS:  3473  HIT %: 23.1297  MISS %: 76.8703  AVERAGE MISS PENALTY: 208.869
LLC0 PREFETCH  ACCESS: 261362  HIT: 73309  MISS: 188053  HIT %: 28.0488  MISS %: 71.9512  AVERAGE MISS PENALTY: 225.84
LLC0 WRITEBACK ACCESS: 11713  HIT:  9651  MISS:  2062  HIT %: 82.3956  MISS %: 17.6044  AVERAGE MISS PENALTY: 0

LLC1 TOTAL     ACCESS: 852754  HIT: 224685  MISS: 628069  HIT %: 26.3482  MISS %: 73.6518  AVERAGE MISS PENALTY: 216.436
LLC1 LOAD      ACCESS: 567685  HIT: 141160  MISS: 426525  HIT %: 24.8659  MISS %: 75.1341  AVERAGE MISS PENALTY: 213.127
LLC1 RFO       ACCESS:  4263  HIT:  1062  MISS:  3201  HIT %: 24.912  MISS %: 75.088  AVERAGE MISS PENALTY: 204.439
LLC1 PREFETCH  ACCESS: 271066  HIT: 74706  MISS: 196360  HIT %: 27.5601  MISS %: 72.4399  AVERAGE MISS PENALTY: 226.004
LLC1 WRITEBACK ACCESS:  9740  HIT:  7757  MISS:  1983  HIT %: 79.6407  MISS %: 20.3593  AVERAGE MISS PENALTY: 0

LLC2 TOTAL     ACCESS: 852660  HIT: 229862  MISS: 622798  HIT %: 26.9582  MISS %: 73.0418  AVERAGE MISS PENALTY: 217.479
LLC2 LOAD      ACCESS: 569114  HIT: 143002  MISS: 426112  HIT %: 25.1271  MISS %: 74.8729  AVERAGE MISS PENALTY: 213.524
LLC2 RFO       ACCESS:  4328  HIT:  1059  MISS:  3269  HIT %: 24.4686  MISS %: 75.5314  AVERAGE MISS PENALTY: 203.537
LLC2 PREFETCH  ACCESS: 266872  HIT: 75897  MISS: 190975  HIT %: 28.4395  MISS %: 71.5605  AVERAGE MISS PENALTY: 229.324
LLC2 WRITEBACK ACCESS: 12346  HIT:  9904  MISS:  2442  HIT %: 80.2203  MISS %: 19.7797  AVERAGE MISS PENALTY: 0

LLC3 TOTAL     ACCESS: 856262  HIT: 228955  MISS: 627307  HIT %: 26.7389  MISS %: 73.2611  AVERAGE MISS PENALTY: 218.246
LLC3 LOAD      ACCESS: 564075  HIT: 138479  MISS: 425596  HIT %: 24.5497  MISS %: 75.4503  AVERAGE MISS PENALTY: 214.375
LLC3 RFO       ACCESS:  4515  HIT:  1168  MISS:  3347  HIT %: 25.8693  MISS %: 74.1307  AVERAGE MISS PENALTY: 201.466
LLC3 PREFETCH  ACCESS: 275420  HIT: 79334  MISS: 196086  HIT %: 28.8047  MISS %: 71.1953  AVERAGE MISS PENALTY: 229.469
LLC3 WRITEBACK ACCESS: 12252  HIT:  9974  MISS:  2278  HIT %: 81.4071  MISS %: 18.5929  AVERAGE MISS PENALTY: 0

LLC4 TOTAL     ACCESS: 852804  HIT: 223424  MISS: 629380  HIT %: 26.1988  MISS %: 73.8012  AVERAGE MISS PENALTY: 216.752
LLC4 LOAD      ACCESS: 568763  HIT: 140076  MISS: 428687  HIT %: 24.6282  MISS %: 75.3718  AVERAGE MISS PENALTY: 213.528
LLC4 RFO       ACCESS:  4211  HIT:   934  MISS:  3277  HIT %: 22.18  MISS %: 77.82  AVERAGE MISS PENALTY: 205.476
LLC4 PREFETCH  ACCESS: 268410  HIT: 73134  MISS: 195276  HIT %: 27.2471  MISS %: 72.7529  AVERAGE MISS PENALTY: 226.394
LLC4 WRITEBACK ACCESS: 11420  HIT:  9280  MISS:  2140  HIT %: 81.2609  MISS %: 18.7391  AVERAGE MISS PENALTY: 0

LLC5 TOTAL     ACCESS: 851306  HIT: 231857  MISS: 619449  HIT %: 27.2354  MISS %: 72.7646  AVERAGE MISS PENALTY: 216.143
LLC5 LOAD      ACCESS: 564022  HIT: 143937  MISS: 420085  HIT %: 25.5197  MISS %: 74.4803  AVERAGE MISS PENALTY: 212.682
LLC5 RFO       ACCESS:  4361  HIT:  1030  MISS:  3331  HIT %: 23.6184  MISS %: 76.3816  AVERAGE MISS PENALTY: 208.048
LLC5 PREFETCH  ACCESS: 271288  HIT: 77484  MISS: 193804  HIT %: 28.5615  MISS %: 71.4385  AVERAGE MISS PENALTY: 226.272
LLC5 WRITEBACK ACCESS: 11635  HIT:  9406  MISS:  2229  HIT %: 80.8423  MISS %: 19.1577  AVERAGE MISS PENALTY: 0

LLC6 TOTAL     ACCESS: 855436  HIT: 228176  MISS: 627260  HIT %: 26.6736  MISS %: 73.3264  AVERAGE MISS PENALTY: 218.67
LLC6 LOAD      ACCESS: 566880  HIT: 141299  MISS: 425581  HIT %: 24.9257  MISS %: 75.0743  AVERAGE MISS PENALTY: 215.028
LLC6 RFO       ACCESS:  4750  HIT:  1299  MISS:  3451  HIT %: 27.3474  MISS %: 72.6526  AVERAGE MISS PENALTY: 202.573
LLC6 PREFETCH  ACCESS: 271049  HIT: 75328  MISS: 195721  HIT %: 27.7913  MISS %: 72.2087  AVERAGE MISS PENALTY: 229.675
LLC6 WRITEBACK ACCESS: 12757  HIT: 10250  MISS:  2507  HIT %: 80.348  MISS %: 19.652  AVERAGE MISS PENALTY: 0

LLC7 TOTAL     ACCESS: 858443  HIT: 229364  MISS: 629079  HIT %: 26.7186  MISS %: 73.2814  AVERAGE MISS PENALTY: 218.131
LLC7 LOAD      ACCESS: 566149  HIT: 140668  MISS: 425481  HIT %: 24.8465  MISS %: 75.1535  AVERAGE MISS PENALTY: 214.299
LLC7 RFO       ACCESS:  5000  HIT:  1589  MISS:  3411  HIT %: 31.78  MISS %: 68.22  AVERAGE MISS PENALTY: 199.711
LLC7 PREFETCH  ACCESS: 275954  HIT: 77953  MISS: 198001  HIT %: 28.2485  MISS %: 71.7515  AVERAGE MISS PENALTY: 229.093
LLC7 WRITEBACK ACCESS: 11340  HIT:  9154  MISS:  2186  HIT %: 80.7231  MISS %: 19.2769  AVERAGE MISS PENALTY: 0

Total Rob stall cycles : 	924945093
Total Load Rob Stall cycles : 	682347099
Average Rob Stall cycles : 	 13
Average Load Rob Stall cycles : 	 56

CPU 1 cumulative IPC: 0.20063 instructions: 200244529 cycles: 998078422
ITLB TOTAL     ACCESS: 28310352  HIT: 28174882  MISS: 135470  HIT %: 99.5215  MISS %: 0.478518  AVERAGE MISS PENALTY: 20.9912
ITLB LOAD      ACCESS: 28310352  HIT: 28174882  MISS: 135470  HIT %: 99.5215  MISS %: 0.478518  AVERAGE MISS PENALTY: 20.9912
ITLB RFO       ACCESS:     0  HIT:     0  MISS:     0  HIT %:     0  MISS %:     0  AVERAGE MISS PENALTY: 0
ITLB PREFETCH  ACCESS:     0  HIT:     0  MISS:     0  HIT %:     0  MISS %:     0  AVERAGE MISS PENALTY: 0
ITLB WRITEBACK ACCESS:     0  HIT:     0  MISS:     0  HIT %:     0  MISS %:     0  AVERAGE MISS PENALTY: 0

DTLB TOTAL     ACCESS: 54189358  HIT: 52860837  MISS: 1328521  HIT %: 97.5484  MISS %: 2.45163  AVERAGE MISS PENALTY: 105.356
DTLB LOAD      ACCESS: 45326223  HIT: 44040394  MISS: 1285829  HIT %: 97.1632  MISS %: 2.83683  AVERAGE MISS PENALTY: 108.367
DTLB RFO       ACCESS: 8863135  HIT: 8820443  MISS: 42692  HIT %: 99.5183  MISS %: 0.481681  AVERAGE MISS PENALTY: 14.6635
DTLB PREFETCH  ACCESS:     0  HIT:     0  MISS:     0  HIT %:     0  MISS %:     0  AVERAGE MISS PENALTY: 0
DTLB WRITEBACK ACCESS:     0  HIT:     0  MISS:     0  HIT %:     0  MISS %:     0  AVERAGE MISS PENALTY: 0

STLB TOTAL     ACCESS: 1463991  HIT: 490770  MISS: 973221  HIT %: 33.5227  MISS %: 66.4773  AVERAGE MISS PENALTY: 100
STLB LOAD      ACCESS: 1421299  HIT: 450220  MISS: 971079  HIT %: 31.6767  MISS %: 68.3233  AVERAGE MISS PENALTY: 100
STLB RFO       ACCESS: 42692  HIT: 40550  MISS:  2142  HIT %: 94.9827  MISS %: 5.01733  AVERAGE MISS PENALTY: 100
STLB PREFETCH  ACCESS:     0  HIT:     0  MISS:     0  HIT %:     0  MISS %:     0  AVERAGE MISS PENALTY: 0
STLB WRITEBACK ACCESS:     0  HIT:     0  MISS:     0  HIT %:     0  MISS %:     0  AVERAGE MISS PENALTY: 0

L1D TOTAL     ACCESS: 54987966  HIT: 47966148  MISS: 7021818  HIT %: 87.2303  MISS %: 12.7697  AVERAGE MISS PENALTY: 6.74193e+06
L1D LOAD      ACCESS: 35831712  HIT: 30989533  MISS: 4842179  HIT %: 86.4863  MISS %: 13.5137  AVERAGE MISS PENALTY: 9.6741e+06
L1D RFO       ACCESS: 9697811  HIT: 9612090  MISS: 85721  HIT %: 99.1161  MISS %: 0.883921  AVERAGE MISS PENALTY: 5.77655e+06
L1D PREFETCH  ACCESS: 9458443  HIT: 7364525  MISS: 2093918  HIT %: 77.8619  MISS %: 22.1381  AVERAGE MISS PENALTY: 824.4
L1D WRITEBACK ACCESS:     0  HIT:     0  MISS:     0  HIT %:     0  MISS %:     0  AVERAGE MISS PENALTY: 0

L1I TOTAL     ACCESS: 35841089  HIT: 35112455  MISS: 728634  HIT %: 97.967  MISS %: 2.03296  AVERAGE MISS PENALTY: 44.7883
L1I LOAD      ACCESS: 35841089  HIT: 35112455  MISS: 728634  HIT %: 97.967  MISS %: 2.03296  AVERAGE MISS PENALTY: 44.7883
L1I RFO       ACCESS:     0  HIT:     0  MISS:     0  HIT %:     0  MISS %:     0  AVERAGE MISS PENALTY: 0
L1I PREFETCH  ACCESS:     0  HIT:     0  MISS:     0  HIT %:     0  MISS %:     0  AVERAGE MISS PENALTY: 0
L1I WRITEBACK ACCESS:     0  HIT:     0  MISS:     0  HIT %:     0  MISS %:     0  AVERAGE MISS PENALTY: 0

L2C TOTAL     ACCESS: 9473980  HIT: 2744791  MISS: 6729189  HIT %: 28.9719  MISS %: 71.0281  AVERAGE MISS PENALTY: 5.54667e+06
L2C LOAD      ACCESS: 5565562  HIT: 1000599  MISS: 4564963  HIT %: 17.9784  MISS %: 82.0216  AVERAGE MISS PENALTY: 8.14501e+06
L2C RFO       ACCESS: 84935  HIT: 47630  MISS: 37305  HIT %: 56.0782  MISS %: 43.9218  AVERAGE MISS PENALTY: 3.8114e+06
L2C PREFETCH  ACCESS: 3608206  HIT: 1484246  MISS: 2123960  HIT %: 41.1353  MISS %: 58.8647  AVERAGE MISS PENALTY: 346.547
L2C WRITEBACK ACCESS: 215277  HIT: 212316  MISS:  2961  HIT %: 98.6246  MISS %: 1.37544  AVERAGE MISS PENALTY: 0


LLC0 TOTAL     ACCESS: 842356  HIT: 231996  MISS: 610360  HIT %: 27.5413  MISS %: 72.4587  AVERAGE MISS PENALTY: 216.445
LLC0 LOAD      ACCESS: 565235  HIT: 147305  MISS: 417930  HIT %: 26.0608  MISS %: 73.9392  AVERAGE MISS PENALTY: 212.76
LLC0 RFO       ACCESS:  4619  HIT:  1159  MISS:  3460  HIT %: 25.092  MISS %: 74.908  AVERAGE MISS PENALTY: 206.28
LLC0 PREFETCH  ACCESS: 260956  HIT: 73996  MISS: 186960  HIT %: 28.3557  MISS %: 71.6443  AVERAGE MISS PENALTY: 227.198
LLC0 WRITEBACK ACCESS: 11546  HIT:  9536  MISS:  2010  HIT %: 82.5914  MISS %: 17.4086  AVERAGE MISS PENALTY: 0

LLC1 TOTAL     ACCESS: 852822  HIT: 227000  MISS: 625822  HIT %: 26.6175  MISS %: 73.3825  AVERAGE MISS PENALTY: 217.132
LLC1 LOAD      ACCESS: 568042  HIT: 142418  MISS: 425624  HIT %: 25.0717  MISS %: 74.9283  AVERAGE MISS PENALTY: 213.435
LLC1 RFO       ACCESS:  4257  HIT:  1074  MISS:  3183  HIT %: 25.229  MISS %: 74.771  AVERAGE MISS PENALTY: 200.767
LLC1 PREFETCH  ACCESS: 270362  HIT: 75225  MISS: 195137  HIT %: 27.8238  MISS %: 72.1762  AVERAGE MISS PENALTY: 227.552
LLC1 WRITEBACK ACCESS: 10161  HIT:  8283  MISS:  1878  HIT %: 81.5176  MISS %: 18.4824  AVERAGE MISS PENALTY: 0

LLC2 TOTAL     ACCESS: 851255  HIT: 229651  MISS: 621604  HIT %: 26.9779  MISS %: 73.0221  AVERAGE MISS PENALTY: 218.183
LLC2 LOAD      ACCESS: 569127  HIT: 143020  MISS: 426107  HIT %: 25.1297  MISS %: 74.8703  AVERAGE MISS PENALTY: 213.841
LLC2 RFO       ACCESS:  4414  HIT:  1179  MISS:  3235  HIT %: 26.7105  MISS %: 73.2895  AVERAGE MISS PENALTY: 200.06
LLC2 PREFETCH  ACCESS: 265313  HIT: 75397  MISS: 189916  HIT %: 28.4181  MISS %: 71.5819  AVERAGE MISS PENALTY: 230.929
LLC2 WRITEBACK ACCESS: 12401  HIT: 10055  MISS:  2346  HIT %: 81.0822  MISS %: 18.9178  AVERAGE MISS PENALTY: 0

LLC3 TOTAL     ACCESS: 855980  HIT: 230835  MISS: 625145  HIT %: 26.9673  MISS %: 73.0327  AVERAGE MISS PENALTY: 219.025
LLC3 LOAD      ACCESS: 564009  HIT: 138628  MISS: 425381  HIT %: 24.579  MISS %: 75.421  AVERAGE MISS PENALTY: 215.013
LLC3 RFO       ACCESS:  4743  HIT:  1381  MISS:  3362  HIT %: 29.1166  MISS %: 70.8834  AVERAGE MISS PENALTY: 195.756
LLC3 PREFETCH  ACCESS: 274266  HIT: 80110  MISS: 194156  HIT %: 29.2089  MISS %: 70.7911  AVERAGE MISS PENALTY: 230.75
[...]
LLC1 AVERAGE MISS LATENCY: 217.817 cycles
LLC2 TOTAL     ACCESS: 849360  HIT: 230049  MISS: 619311  HIT %: 27.085  MISS %: 72.915  AVERAGE MISS PENALTY: 218.824
LLC2 LOAD      ACCESS: 567576  HIT: 142545  MISS: 425031  HIT %: 25.1147  MISS %: 74.8853  AVERAGE MISS PENALTY: 214.75
LLC2 RFO       ACCESS:  4486  HIT:  1255  MISS:  3231  HIT %: 27.9759  MISS %: 72.0241  AVERAGE MISS PENALTY: 202.98
LLC2 PREFETCH  ACCESS: 264548  HIT: 75798  MISS: 188750  HIT %: 28.6519  MISS %: 71.3481  AVERAGE MISS PENALTY: 230.933
LLC2 WRITEBACK ACCESS: 12750  HIT: 10451  MISS:  2299  HIT %: 81.9686  MISS %: 18.0314  AVERAGE MISS PENALTY: 0
LLC2 PREFETCH  REQUESTED:     0  ISSUED:     0  USEFUL: 50534  USELESS: 1467594
 USEFUL LOAD PREFETCHES:      50534 PREFETCH ISSUED TO LOWER LEVEL:    1520104  ACCURACY: 3.32438
 TIMELY PREFETCHES:      50534 LATE PREFETCHES: 0 DROPPED PREFETCHES: 0
LLC2 AVERAGE MISS LATENCY: 218.824 cycles
LLC3 TOTAL     ACCESS: 854482  HIT: 230377  MISS: 624105  HIT %: 26.961  MISS %: 73.039  AVERAGE MISS PENALTY: 219.287
LLC3 LOAD      ACCESS: 562680  HIT: 137578  MISS: 425102  HIT %: 24.4505  MISS %: 75.5495  AVERAGE MISS PENALTY: 215.229
LLC3 RFO       ACCESS:  4963  HIT:  1634  MISS:  3329  HIT %: 32.9236  MISS %: 67.0764  AVERAGE MISS PENALTY: 200.884
LLC3 PREFETCH  ACCESS: 273830  HIT: 80455  MISS: 193375  HIT %: 29.3814  MISS %: 70.6186  AVERAGE MISS PENALTY: 231.133
LLC3 WRITEBACK ACCESS: 13009  HIT: 10710  MISS:  2299  HIT %: 82.3276  MISS %: 17.6724  AVERAGE MISS PENALTY: 0
LLC3 PREFETCH  REQUESTED:     0  ISSUED:     0  USEFUL: 47794  USELESS: 1507730
 USEFUL LOAD PREFETCHES:      47794 PREFETCH ISSUED TO LOWER LEVEL:    1557487  ACCURACY: 3.06866
 TIMELY PREFETCHES:      47794 LATE PREFETCHES: 0 DROPPED PREFETCHES: 0
LLC3 AVERAGE MISS LATENCY: 219.287 cycles
LLC4 TOTAL     ACCESS: 851186  HIT: 224415  MISS: 626771  HIT %: 26.365  MISS %: 73.635  AVERAGE MISS PENALTY: 217.62
LLC4 LOAD      ACCESS: 567341  HIT: 138982  MISS: 428359  HIT %: 24.4971  MISS %: 75.5029  AVERAGE MISS PENALTY: 213.905
LLC4 RFO       ACCESS:  4361  HIT:  1039  MISS:  3322  HIT %: 23.8248  MISS %: 76.1752  AVERAGE MISS PENALTY: 205.232
LLC4 PREFETCH  ACCESS: 267204  HIT: 74129  MISS: 193075  HIT %: 27.7425  MISS %: 72.2575  AVERAGE MISS PENALTY: 228.344
LLC4 WRITEBACK ACCESS: 12280  HIT: 10265  MISS:  2015  HIT %: 83.5912  MISS %: 16.4088  AVERAGE MISS PENALTY: 0
LLC4 PREFETCH  REQUESTED:     0  ISSUED:     0  USEFUL: 51526  USELESS: 1499614
 USEFUL LOAD PREFETCHES:      51526 PREFETCH ISSUED TO LOWER LEVEL:    1552504  ACCURACY: 3.3189
 TIMELY PREFETCHES:      51526 LATE PREFETCHES: 0 DROPPED PREFETCHES: 0
LLC4 AVERAGE MISS LATENCY: 217.62 cycles
LLC5 TOTAL     ACCESS: 847765  HIT: 231108  MISS: 616657  HIT %: 27.2609  MISS %: 72.7391  AVERAGE MISS PENALTY: 217.681
LLC5 LOAD      ACCESS: 561464  HIT: 142230  MISS: 419234  HIT %: 25.332  MISS %: 74.668  AVERAGE MISS PENALTY: 213.845
LLC5 RFO       ACCESS:  4439  HIT:  1078  MISS:  3361  HIT %: 24.2847  MISS %: 75.7153  AVERAGE MISS PENALTY: 206.382
LLC5 PREFETCH  ACCESS: 269737  HIT: 77916  MISS: 191821  HIT %: 28.8859  MISS %: 71.1141  AVERAGE MISS PENALTY: 228.804
LLC5 WRITEBACK ACCESS: 12125  HIT:  9884  MISS:  2241  HIT %: 81.5175  MISS %: 18.4825  AVERAGE MISS PENALTY: 0
LLC5 PREFETCH  REQUESTED:     0  ISSUED:     0  USEFUL: 49925  USELESS: 1489523
 USEFUL LOAD PREFETCHES:      49925 PREFETCH ISSUED TO LOWER LEVEL:    1541036  ACCURACY: 3.2397
 TIMELY PREFETCHES:      49925 LATE PREFETCHES: 0 DROPPED PREFETCHES: 0
LLC5 AVERAGE MISS LATENCY: 217.681 cycles
LLC6 TOTAL     ACCESS: 853298  HIT: 229359  MISS: 623939  HIT %: 26.8791  MISS %: 73.1209  AVERAGE MISS PENALTY: 219.852
LLC6 LOAD      ACCESS: 565002  HIT: 140104  MISS: 424898  HIT %: 24.7971  MISS %: 75.2029  AVERAGE MISS PENALTY: 215.74
LLC6 RFO       ACCESS:  5538  HIT:  1988  MISS:  3550  HIT %: 35.8974  MISS %: 64.1026  AVERAGE MISS PENALTY: 201.063
LLC6 PREFETCH  ACCESS: 268688  HIT: 75514  MISS: 193174  HIT %: 28.1047  MISS %: 71.8953  AVERAGE MISS PENALTY: 231.878
LLC6 WRITEBACK ACCESS: 14070  HIT: 11753  MISS:  2317  HIT %: 83.5323  MISS %: 16.4677  AVERAGE MISS PENALTY: 0
LLC6 PREFETCH  REQUESTED:     0  ISSUED:     0  USEFUL: 47168  USELESS: 1507035
 USEFUL LOAD PREFETCHES:      47168 PREFETCH ISSUED TO LOWER LEVEL:    1555855  ACCURACY: 3.03164
 TIMELY PREFETCHES:      47168 LATE PREFETCHES: 0 DROPPED PREFETCHES: 0
LLC6 AVERAGE MISS LATENCY: 219.852 cycles
LLC7 TOTAL     ACCESS: 853284  HIT: 226875  MISS: 626409  HIT %: 26.5885  MISS %: 73.4115  AVERAGE MISS PENALTY: 219.217
LLC7 LOAD      ACCESS: 563642  HIT: 138342  MISS: 425300  HIT %: 24.5443  MISS %: 75.4557  AVERAGE MISS PENALTY: 214.904
LLC7 RFO       ACCESS:  5128  HIT:  1620  MISS:  3508  HIT %: 31.5913  MISS %: 68.4087  AVERAGE MISS PENALTY: 200.257
LLC7 PREFETCH  ACCESS: 272348  HIT: 76773  MISS: 195575  HIT %: 28.1893  MISS %: 71.8107  AVERAGE MISS PENALTY: 231.207
LLC7 WRITEBACK ACCESS: 12166  HIT: 10140  MISS:  2026  HIT %: 83.347  MISS %: 16.653  AVERAGE MISS PENALTY: 0
LLC7 PREFETCH  REQUESTED:     0  ISSUED:     0  USEFUL: 52441  USELESS: 1519825
 USEFUL LOAD PREFETCHES:      52441 PREFETCH ISSUED TO LOWER LEVEL:    1573973  ACCURACY: 3.33176
 TIMELY PREFETCHES:      52441 LATE PREFETCHES: 0 DROPPED PREFETCHES: 0
LLC7 AVERAGE MISS LATENCY: 219.217 cycles
ROI Average ROB Stall Cycles:	13.9526
ROI Total ROB Stalls Cycles:	924979816
ROI TOTAL ROB counter      :	66294613
ROI Average Load ROB Stall Cycles:	56.4705
ROI Total Load ROB Stalls Cycle  :	683092865
ROI Total Load ROB stalls Counter:	12096459
Major fault: 0 Minor fault: 11833

CPU 7 cumulative IPC: 0.20039 instructions: 200000001 cycles: 998054673
ITLB TOTAL     ACCESS: 28280386  HIT: 28144916  MISS: 135470  HIT %: 99.521  MISS %: 0.479025  AVERAGE MISS PENALTY: 20.9912
ITLB LOAD      ACCESS: 28280386  HIT: 28144916  MISS: 135470  HIT %: 99.521  MISS %: 0.479025  AVERAGE MISS PENALTY: 20.9912
ITLB RFO       ACCESS:     0  HIT:     0  MISS:     0  HIT %:     0  MISS %:     0  AVERAGE MISS PENALTY: 0
ITLB PREFETCH  ACCESS:     0  HIT:     0  MISS:     0  HIT %:     0  MISS %:     0  AVERAGE MISS PENALTY: 0
ITLB WRITEBACK ACCESS:     0  HIT:     0  MISS:     0  HIT %:     0  MISS %:     0  AVERAGE MISS PENALTY: 0
ITLB PREFETCH  REQUESTED:     0  ISSUED:     0  USEFUL:     0  USELESS:     0
 USEFUL LOAD PREFETCHES:          0 PREFETCH ISSUED TO LOWER LEVEL:          0  ACCURACY: -nan
 TIMELY PREFETCHES:          0 LATE PREFETCHES: 0 DROPPED PREFETCHES: 0
ITLB AVERAGE MISS LATENCY: 20.9912 cycles
DTLB TOTAL     ACCESS: 54127647  HIT: 52799724  MISS: 1327923  HIT %: 97.5467  MISS %: 2.45332  AVERAGE MISS PENALTY: 105.306
DTLB LOAD      ACCESS: 45268195  HIT: 43982975  MISS: 1285220  HIT %: 97.1609  MISS %: 2.83912  AVERAGE MISS PENALTY: 108.318
DTLB RFO       ACCESS: 8859452  HIT: 8816749  MISS: 42703  HIT %: 99.518  MISS %: 0.482005  AVERAGE MISS PENALTY: 14.6489
DTLB PREFETCH  ACCESS:     0  HIT:     0  MISS:     0  HIT %:     0  MISS %:     0  AVERAGE MISS PENALTY: 0
DTLB WRITEBACK ACCESS:     0  HIT:     0  MISS:     0  HIT %:     0  MISS %:     0  AVERAGE MISS PENALTY: 0
DTLB PREFETCH  REQUESTED:     0  ISSUED:     0  USEFUL:     0  USELESS:     0
 USEFUL LOAD PREFETCHES:          0 PREFETCH ISSUED TO LOWER LEVEL:          0  ACCURACY: -nan
 TIMELY PREFETCHES:          0 LATE PREFETCHES: 0 DROPPED PREFETCHES: 0
DTLB AVERAGE MISS LATENCY: 105.306 cycles
STLB TOTAL     ACCESS: 1463393  HIT: 490770  MISS: 972623  HIT %: 33.5364  MISS %: 66.4636  AVERAGE MISS PENALTY: 100
STLB LOAD      ACCESS: 1420690  HIT: 450210  MISS: 970480  HIT %: 31.6895  MISS %: 68.3105  AVERAGE MISS PENALTY: 100
STLB RFO       ACCESS: 42703  HIT: 40560  MISS:  2143  HIT %: 94.9816  MISS %: 5.01838  AVERAGE MISS PENALTY: 100
STLB PREFETCH  ACCESS:     0  HIT:     0  MISS:     0  HIT %:     0  MISS %:     0  AVERAGE MISS PENALTY: 0
STLB WRITEBACK ACCESS:     0  HIT:     0  MISS:     0  HIT %:     0  MISS %:     0  AVERAGE MISS PENALTY: 0
STLB PREFETCH  REQUESTED:     0  ISSUED:     0  USEFUL:     0  USELESS:     0
 USEFUL LOAD PREFETCHES:          0 PREFETCH ISSUED TO LOWER LEVEL:          0  ACCURACY: -nan
 TIMELY PREFETCHES:          0 LATE PREFETCHES: 0 DROPPED PREFETCHES: 0
STLB AVERAGE MISS LATENCY: 100 cycles
L1D TOTAL     ACCESS: 54913040  HIT: 47903844  MISS: 7009196  HIT %: 87.2358  MISS %: 12.7642  AVERAGE MISS PENALTY: 6.71972e+06
L1D LOAD      ACCESS: 35793046  HIT: 30952588  MISS: 4840458  HIT %: 86.4765  MISS %: 13.5235  AVERAGE MISS PENALTY: 9.62321e+06
L1D RFO       ACCESS: 9687401  HIT: 9601665  MISS: 85736  HIT %: 99.115  MISS %: 0.885026  AVERAGE MISS PENALTY: 6.05046e+06
L1D PREFETCH  ACCESS: 9432593  HIT: 7349591  MISS: 2083002  HIT %: 77.917  MISS %: 22.083  AVERAGE MISS PENALTY: 166.638
L1D WRITEBACK ACCESS:     0  HIT:     0  MISS:     0  HIT %:     0  MISS %:     0  AVERAGE MISS PENALTY: 0
L1D PREFETCH  REQUESTED: 10314349  ISSUED: 10112987  USEFUL: 506766  USELESS: 1576329
 USEFUL LOAD PREFETCHES:     506766 PREFETCH ISSUED TO LOWER LEVEL:    2585302  ACCURACY: 19.6018
 TIMELY PREFETCHES:     506766 LATE PREFETCHES: 188939 DROPPED PREFETCHES: 201362
L1D AVERAGE MISS LATENCY: 74201.7 cycles
L1I TOTAL     ACCESS: 35807924  HIT: 35079269  MISS: 728655  HIT %: 97.9651  MISS %: 2.0349  AVERAGE MISS PENALTY: 43.6369
L1I LOAD      ACCESS: 35807924  HIT: 35079269  MISS: 728655  HIT %: 97.9651  MISS %: 2.0349  AVERAGE MISS PENALTY: 43.6369
L1I RFO       ACCESS:     0  HIT:     0  MISS:     0  HIT %:     0  MISS %:     0  AVERAGE MISS PENALTY: 0
L1I PREFETCH  ACCESS:     0  HIT:     0  MISS:     0  HIT %:     0  MISS %:     0  AVERAGE MISS PENALTY: 0
L1I WRITEBACK ACCESS:     0  HIT:     0  MISS:     0  HIT %:     0  MISS %:     0  AVERAGE MISS PENALTY: 0
L1I PREFETCH  REQUESTED:     0  ISSUED:     0  USEFUL:     0  USELESS:     0
 USEFUL LOAD PREFETCHES:          0 PREFETCH ISSUED TO LOWER LEVEL:          0  ACCURACY: -nan
 TIMELY PREFETCHES:          0 LATE PREFETCHES: 0 DROPPED PREFETCHES: 0
L1I AVERAGE MISS LATENCY: 43.6369 cycles
L2C TOTAL     ACCESS: 9457417  HIT: 2749855  MISS: 6707562  HIT %: 29.0762  MISS %: 70.9238  AVERAGE MISS PENALTY: 5.51035e+06
L2C LOAD      ACCESS: 5563746  HIT: 1014579  MISS: 4549167  HIT %: 18.2355  MISS %: 81.7645  AVERAGE MISS PENALTY: 8.09563e+06
L2C RFO       ACCESS: 84909  HIT: 43589  MISS: 41320  HIT %: 51.3361  MISS %: 48.6639  AVERAGE MISS PENALTY: 3.19978e+06
L2C PREFETCH  ACCESS: 3593551  HIT: 1480977  MISS: 2112574  HIT %: 41.2121  MISS %: 58.7879  AVERAGE MISS PENALTY: 202.225
L2C WRITEBACK ACCESS: 215211  HIT: 210710  MISS:  4501  HIT %: 97.9086  MISS %: 2.09144  AVERAGE MISS PENALTY: 0
L2C PREFETCH  REQUESTED: 2549523  ISSUED: 2534124  USEFUL: 147301  USELESS: 1967567
 USEFUL LOAD PREFETCHES:     147301 PREFETCH ISSUED TO LOWER LEVEL:    2346263  ACCURACY: 6.27811
 TIMELY PREFETCHES:     147301 LATE PREFETCHES: 156103 DROPPED PREFETCHES: 15399
L2C AVERAGE MISS LATENCY: 200.146 cycles
LLC0 TOTAL     ACCESS: 843483  HIT: 235112  MISS: 608371  HIT %: 27.8739  MISS %: 72.1261  AVERAGE MISS PENALTY: 216.923
LLC0 LOAD      ACCESS: 564803  HIT: 147526  MISS: 417277  HIT %: 26.1199  MISS %: 73.8801  AVERAGE MISS PENALTY: 213.304
LLC0 RFO       ACCESS:  5420  HIT:  1858  MISS:  3562  HIT %: 34.2804  MISS %: 65.7196  AVERAGE MISS PENALTY: 204.743
LLC0 PREFETCH  ACCESS: 260317  HIT: 74675  MISS: 185642  HIT %: 28.6862  MISS %: 71.3138  AVERAGE MISS PENALTY: 227.498
LLC0 WRITEBACK ACCESS: 12943  HIT: 11053  MISS:  1890  HIT %: 85.3975  MISS %: 14.6025  AVERAGE MISS PENALTY: 0
LLC0 PREFETCH  REQUESTED:     0  ISSUED:     0  USEFUL: 50295  USELESS: 1445538
 USEFUL LOAD PREFETCHES:      50295 PREFETCH ISSUED TO LOWER LEVEL:    1497482  ACCURACY: 3.35864
 TIMELY PREFETCHES:      50295 LATE PREFETCHES: 0 DROPPED PREFETCHES: 0
LLC0 AVERAGE MISS LATENCY: 216.923 cycles
Deadblocks : 2785840 Deadblock percentage : 667.624

LLC1 TOTAL     ACCESS: 850297  HIT: 225917  MISS: 624380  HIT %: 26.5692  MISS %: 73.4308  AVERAGE MISS PENALTY: 217.604
LLC1 LOAD      ACCESS: 564068  HIT: 138598  MISS: 425470  HIT %: 24.5712  MISS %: 75.4288  AVERAGE MISS PENALTY: 213.967
LLC1 RFO       ACCESS:  4721  HIT:  1473  MISS:  3248  HIT %: 31.201  MISS %: 68.799  AVERAGE MISS PENALTY: 200.219
LLC1 PREFETCH  ACCESS: 270711  HIT: 76717  MISS: 193994  HIT %: 28.3391  MISS %: 71.6609  AVERAGE MISS PENALTY: 227.742
LLC1 WRITEBACK ACCESS: 10797  HIT:  9129  MISS:  1668  HIT %: 84.5513  MISS %: 15.4487  AVERAGE MISS PENALTY: 0
LLC1 PREFETCH  REQUESTED:     0  ISSUED:     0  USEFUL: 46535  USELESS: 1514714
 USEFUL LOAD PREFETCHES:      46535 PREFETCH ISSUED TO LOWER LEVEL:    1562988  ACCURACY: 2.97731
 TIMELY PREFETCHES:      46535 LATE PREFETCHES: 0 DROPPED PREFETCHES: 0
LLC1 AVERAGE MISS LATENCY: 217.604 cycles
LLC2 TOTAL     ACCESS: 850595  HIT: 231250  MISS: 619345  HIT %: 27.1869  MISS %: 72.8131  AVERAGE MISS PENALTY: 218.627
LLC2 LOAD      ACCESS: 567973  HIT: 142964  MISS: 425009  HIT %: 25.1709  MISS %: 74.8291  AVERAGE MISS PENALTY: 214.412
LLC2 RFO       ACCESS:  5179  HIT:  1843  MISS:  3336  HIT %: 35.586  MISS %: 64.414  AVERAGE MISS PENALTY: 205.116
LLC2 PREFETCH  ACCESS: 264045  HIT: 75240  MISS: 188805  HIT %: 28.4951  MISS %: 71.5049  AVERAGE MISS PENALTY: 230.894
LLC2 WRITEBACK ACCESS: 13398  HIT: 11203  MISS:  2195  HIT %: 83.617  MISS %: 16.383  AVERAGE MISS PENALTY: 0
LLC2 PREFETCH  REQUESTED:     0  ISSUED:     0  USEFUL: 50534  USELESS: 1467594
 USEFUL LOAD PREFETCHES:      50534 PREFETCH ISSUED TO LOWER LEVEL:    1520104  ACCURACY: 3.32438
 TIMELY PREFETCHES:      50534 LATE PREFETCHES: 0 DROPPED PREFETCHES: 0
LLC2 AVERAGE MISS LATENCY: 218.627 cycles
LLC3 TOTAL     ACCESS: 855720  HIT: 231848  MISS: 623872  HIT %: 27.0939  MISS %: 72.9061  AVERAGE MISS PENALTY: 219.393
LLC3 LOAD      ACCESS: 562345  HIT: 137605  MISS: 424740  HIT %: 24.4699  MISS %: 75.5301  AVERAGE MISS PENALTY: 215.331
LLC3 RFO       ACCESS:  5370  HIT:  1975  MISS:  3395  HIT %: 36.7784  MISS %: 63.2216  AVERAGE MISS PENALTY: 198.938
LLC3 PREFETCH  ACCESS: 274265  HIT: 80630  MISS: 193635  HIT %: 29.3986  MISS %: 70.6014  AVERAGE MISS PENALTY: 231.043
LLC3 WRITEBACK ACCESS: 13740  HIT: 11638  MISS:  2102  HIT %: 84.7016  MISS %: 15.2984  AVERAGE MISS PENALTY: 0
LLC3 PREFETCH  REQUESTED:     0  ISSUED:     0  USEFUL: 47794  USELESS: 1507730
 USEFUL LOAD PREFETCHES:      47794 PREFETCH ISSUED TO LOWER LEVEL:    1557487  ACCURACY: 3.06866
 TIMELY PREFETCHES:      47794 LATE PREFETCHES: 0 DROPPED PREFETCHES: 0
LLC3 AVERAGE MISS LATENCY: 219.393 cycles
LLC4 TOTAL     ACCESS: 850369  HIT: 224685  MISS: 625684  HIT %: 26.4221  MISS %: 73.5779  AVERAGE MISS PENALTY: 218.022
LLC4 LOAD      ACCESS: 566210  HIT: 138400  MISS: 427810  HIT %: 24.4432  MISS %: 75.5568  AVERAGE MISS PENALTY: 214.324
LLC4 RFO       ACCESS:  4665  HIT:  1343  MISS:  3322  HIT %: 28.7889  MISS %: 71.2111  AVERAGE MISS PENALTY: 200.956
LLC4 PREFETCH  ACCESS: 266614  HIT: 73916  MISS: 192698  HIT %: 27.724  MISS %: 72.276  AVERAGE MISS PENALTY: 228.625
LLC4 WRITEBACK ACCESS: 12880  HIT: 11026  MISS:  1854  HIT %: 85.6056  MISS %: 14.3944  AVERAGE MISS PENALTY: 0
LLC4 PREFETCH  REQUESTED:     0  ISSUED:     0  USEFUL: 51526  USELESS: 1499614
 USEFUL LOAD PREFETCHES:      51526 PREFETCH ISSUED TO LOWER LEVEL:    1552504  ACCURACY: 3.3189
 TIMELY PREFETCHES:      51526 LATE PREFETCHES: 0 DROPPED PREFETCHES: 0
LLC4 AVERAGE MISS LATENCY: 218.022 cycles
LLC5 TOTAL     ACCESS: 847153  HIT: 231726  MISS: 615427  HIT %: 27.3535  MISS %: 72.6465  AVERAGE MISS PENALTY: 217.434
LLC5 LOAD      ACCESS: 561750  HIT: 142554  MISS: 419196  HIT %: 25.3768  MISS %: 74.6232  AVERAGE MISS PENALTY: 213.714
LLC5 RFO       ACCESS:  4915  HIT:  1534  MISS:  3381  HIT %: 31.2106  MISS %: 68.7894  AVERAGE MISS PENALTY: 200.234
LLC5 PREFETCH  ACCESS: 267582  HIT: 76813  MISS: 190769  HIT %: 28.7063  MISS %: 71.2937  AVERAGE MISS PENALTY: 228.286
LLC5 WRITEBACK ACCESS: 12906  HIT: 10825  MISS:  2081  HIT %: 83.8757  MISS %: 16.1243  AVERAGE MISS PENALTY: 0
LLC5 PREFETCH  REQUESTED:     0  ISSUED:     0  USEFUL: 49925  USELESS: 1489523
 USEFUL LOAD PREFETCHES:      49925 PREFETCH ISSUED TO LOWER LEVEL:    1541036  ACCURACY: 3.2397
 TIMELY PREFETCHES:      49925 LATE PREFETCHES: 0 DROPPED PREFETCHES: 0
LLC5 AVERAGE MISS LATENCY: 217.434 cycles
LLC6 TOTAL     ACCESS: 853947  HIT: 230954  MISS: 622993  HIT %: 27.0455  MISS %: 72.9545  AVERAGE MISS PENALTY: 219.876
LLC6 LOAD      ACCESS: 563829  HIT: 139635  MISS: 424194  HIT %: 24.7655  MISS %: 75.2345  AVERAGE MISS PENALTY: 215.69
LLC6 RFO       ACCESS:  5394  HIT:  1854  MISS:  3540  HIT %: 34.3715  MISS %: 65.6285  AVERAGE MISS PENALTY: 201.945
LLC6 PREFETCH  ACCESS: 270428  HIT: 77413  MISS: 193015  HIT %: 28.6261  MISS %: 71.3739  AVERAGE MISS PENALTY: 231.961
LLC6 WRITEBACK ACCESS: 14296  HIT: 12052  MISS:  2244  HIT %: 84.3033  MISS %: 15.6967  AVERAGE MISS PENALTY: 0
LLC6 PREFETCH  REQUESTED:     0  ISSUED:     0  USEFUL: 47168  USELESS: 1507035
 USEFUL LOAD PREFETCHES:      47168 PREFETCH ISSUED TO LOWER LEVEL:    1555855  ACCURACY: 3.03164
 TIMELY PREFETCHES:      47168 LATE PREFETCHES: 0 DROPPED PREFETCHES: 0
LLC6 AVERAGE MISS LATENCY: 219.876 cycles
LLC7 TOTAL     ACCESS: 855670  HIT: 230052  MISS: 625618  HIT %: 26.8856  MISS %: 73.1144  AVERAGE MISS PENALTY: 219.571
LLC7 LOAD      ACCESS: 564489  HIT: 139442  MISS: 425047  HIT %: 24.7023  MISS %: 75.2977  AVERAGE MISS PENALTY: 215.117
LLC7 RFO       ACCESS:  5611  HIT:  2051  MISS:  3560  HIT %: 36.5532  MISS %: 63.4468  AVERAGE MISS PENALTY: 195.671
LLC7 PREFETCH  ACCESS: 272356  HIT: 77174  MISS: 195182  HIT %: 28.3357  MISS %: 71.6643  AVERAGE MISS PENALTY: 231.764
LLC7 WRITEBACK ACCESS: 13214  HIT: 11385  MISS:  1829  HIT %: 86.1586  MISS %: 13.8414  AVERAGE MISS PENALTY: 0
LLC7 PREFETCH  REQUESTED:     0  ISSUED:     0  USEFUL: 52441  USELESS: 1519825
 USEFUL LOAD PREFETCHES:      52441 PREFETCH ISSUED TO LOWER LEVEL:    1573973  ACCURACY: 3.33176
 TIMELY PREFETCHES:      52441 LATE PREFETCHES: 0 DROPPED PREFETCHES: 0
LLC7 AVERAGE MISS LATENCY: 219.571 cycles
ROI Average ROB Stall Cycles:	13.9551
ROI Total ROB Stalls Cycles:	925136588
ROI TOTAL ROB counter      :	66293982
ROI Average Load ROB Stall Cycles:	56.489
ROI Total Load ROB Stalls Cycle  :	683308600
ROI Total Load ROB stalls Counter:	12096308
Major fault: 0 Minor fault: 11833








Interconnect Stats 
LINK 0 BW : 0LINK 1 BW : 0LINK 2 BW : 0LINK 3 BW : 0LINK 4 BW : 0LINK 5 BW : 0LINK 6 BW : 0LINK 7 BW : 0
DRAM Statistics
 CHANNEL 0
 RQ ROW_BUFFER_HIT: 2785393  ROW_BUFFER_MISS: 17020940
 DBUS_CONGESTED: 7222849
 WQ ROW_BUFFER_HIT: 56095  ROW_BUFFER_MISS: 220297  FULL:     0

 CHANNEL 1
 RQ ROW_BUFFER_HIT: 2785843  ROW_BUFFER_MISS: 17127935
 DBUS_CONGESTED: 7222849
 WQ ROW_BUFFER_HIT: 53385  ROW_BUFFER_MISS: 213765  FULL:     0

 AVG_CONGESTED_CYCLE: 5
DRAM PAGES: 2097152
Allocated PAGES: 94665
L2C destructor called
L1D destructor called
L1I destructor called
STLB destructor called
DTLB destructor called
ITLB destructor called
L2C destructor called
L1D destructor called
L1I destructor called
STLB destructor called
DTLB destructor called
ITLB destructor called
L2C destructor called
L1D destructor called
L1I destructor called
STLB destructor called
DTLB destructor called
ITLB destructor called
L2C destructor called
L1D destructor called
L1I destructor called
STLB destructor called
DTLB destructor called
ITLB destructor called
L2C destructor called
L1D destructor called
L1I destructor called
STLB destructor called
DTLB destructor called
ITLB destructor called
L2C destructor called
L1D destructor called
L1I destructor called
STLB destructor called
DTLB destructor called
ITLB destructor called
L2C destructor called
L1D destructor called
L1I destructor called
STLB destructor called
DTLB destructor called
ITLB destructor called
L2C destructor called
L1D destructor called
L1I destructor called
STLB destructor called
DTLB destructor called
ITLB destructor called
