
*** ChampSim Multicore Out-of-Order Simulator ***

Warmup Instructions: 200000000
Simulation Instructions: 200000000
Number of CPUs: 8
threads:1

L1I Configuration:
L1I_SET:64
L1I_WAY:8
L1I_RQ_SIZE:64
L1I_WQ_SIZE:64
L1I_PQ_SIZE:8
L1I_MSHR_SIZE:8

L1D Configuration:
L1D_SET:64
L1D_WAY:12
L1D_RQ_SIZE:64
L1D_WQ_SIZE:64
L1D_PQ_SIZE:8
L1D_MSHR_SIZE:16

L2C Configuration:
L2C_SET:1024
L2C_WAY:8
L2C_RQ_SIZE:32
L2C_WQ_SIZE:32
L2C_PQ_SIZE:16
L2C_MSHR_SIZE:32

LLC Configuration:
LLC_SET:2048
LLC_WAY:16
LLC SLICES:8
LLC_RQ_SIZE:64
LLC_WQ_SIZE:64
LLC_PQ_SIZE:32
LLC_MSHR_SIZE:64

Interconnect OFF
Attacker deprioritize is: OFF
Off-chip DRAM Size: 8192 MB Channels: 2 Width: 64-bit Data Rate: 3200 MT/s
PAGE SIZE in KB: 4.000000 
PAGE SIZE in MB: 0.003906 
PAGE offset in bits: 12 
CEASER-S_LLC:0
MIRAGE : 1
CEASER_LATENCY:3
REMAP : OFF
Partitions : 1
Multi-Step : OFF
BFS : OFF

CPU 0 runs /home/anubhav/spec_2017/628.pop2_s-17B.champsimtrace.xz
CPU 1 runs /home/anubhav/spec_2017/628.pop2_s-17B.champsimtrace.xz
CPU 2 runs /home/anubhav/spec_2017/628.pop2_s-17B.champsimtrace.xz
CPU 3 runs /home/anubhav/spec_2017/628.pop2_s-17B.champsimtrace.xz
CPU 4 runs /home/anubhav/spec_2017/628.pop2_s-17B.champsimtrace.xz
CPU 5 runs /home/anubhav/spec_2017/628.pop2_s-17B.champsimtrace.xz
CPU 6 runs /home/anubhav/spec_2017/628.pop2_s-17B.champsimtrace.xz
CPU 7 runs /home/anubhav/spec_2017/628.pop2_s-17B.champsimtrace.xz
CPU 0 Bimodal branch predictor
Initialize Hawkeye state
Initialize Hawkeye state
Initialize Hawkeye state
Initialize Hawkeye state
Initialize Hawkeye state
Initialize Hawkeye state
Initialize Hawkeye state
Initialize Hawkeye state
CPU 1 Bimodal branch predictor
Initialize Hawkeye state
Initialize Hawkeye state
Initialize Hawkeye state
Initialize Hawkeye state
Initialize Hawkeye state
Initialize Hawkeye state
Initialize Hawkeye state
Initialize Hawkeye state
CPU 2 Bimodal branch predictor
Initialize Hawkeye state
Initialize Hawkeye state
Initialize Hawkeye state
Initialize Hawkeye state
Initialize Hawkeye state
Initialize Hawkeye state
Initialize Hawkeye state
Initialize Hawkeye state
CPU 3 Bimodal branch predictor
Initialize Hawkeye state
Initialize Hawkeye state
Initialize Hawkeye state
Initialize Hawkeye state
Initialize Hawkeye state
Initialize Hawkeye state
Initialize Hawkeye state
Initialize Hawkeye state
CPU 4 Bimodal branch predictor
Initialize Hawkeye state
Initialize Hawkeye state
Initialize Hawkeye state
Initialize Hawkeye state
Initialize Hawkeye state
Initialize Hawkeye state
Initialize Hawkeye state
Initialize Hawkeye state
CPU 5 Bimodal branch predictor
Initialize Hawkeye state
Initialize Hawkeye state
Initialize Hawkeye state
Initialize Hawkeye state
Initialize Hawkeye state
Initialize Hawkeye state
Initialize Hawkeye state
Initialize Hawkeye state
CPU 6 Bimodal branch predictor
Initialize Hawkeye state
Initialize Hawkeye state
Initialize Hawkeye state
Initialize Hawkeye state
Initialize Hawkeye state
Initialize Hawkeye state
Initialize Hawkeye state
Initialize Hawkeye state
CPU 7 Bimodal branch predictor
Initialize Hawkeye state
Initialize Hawkeye state
Initialize Hawkeye state
Initialize Hawkeye state
Initialize Hawkeye state
Initialize Hawkeye state
Initialize Hawkeye state
Initialize Hawkeye state
Heartbeat CPU 2 instructions: 10000002 cycles: 4455912 heartbeat IPC: 2.24421 cumulative IPC: 2.24421 (Simulation time: 0 hr 15 min 37 sec) 
 Total Blocks : 262144 Invalid Blocks : 54316
Heartbeat CPU 0 instructions: 10000002 cycles: 4456198 heartbeat IPC: 2.24407 cumulative IPC: 2.24407 (Simulation time: 0 hr 15 min 37 sec) 
 Total Blocks : 262144 Invalid Blocks : 54316
Heartbeat CPU 3 instructions: 10000002 cycles: 4456273 heartbeat IPC: 2.24403 cumulative IPC: 2.24403 (Simulation time: 0 hr 15 min 37 sec) 
 Total Blocks : 262144 Invalid Blocks : 54316
Heartbeat CPU 1 instructions: 10000002 cycles: 4456302 heartbeat IPC: 2.24401 cumulative IPC: 2.24401 (Simulation time: 0 hr 15 min 37 sec) 
 Total Blocks : 262144 Invalid Blocks : 54316
Heartbeat CPU 4 instructions: 10000002 cycles: 4456507 heartbeat IPC: 2.24391 cumulative IPC: 2.24391 (Simulation time: 0 hr 15 min 37 sec) 
 Total Blocks : 262144 Invalid Blocks : 54316
Heartbeat CPU 5 instructions: 10000002 cycles: 4456577 heartbeat IPC: 2.24388 cumulative IPC: 2.24388 (Simulation time: 0 hr 15 min 37 sec) 
 Total Blocks : 262144 Invalid Blocks : 54316
Heartbeat CPU 6 instructions: 10000002 cycles: 4456655 heartbeat IPC: 2.24384 cumulative IPC: 2.24384 (Simulation time: 0 hr 15 min 37 sec) 
 Total Blocks : 262144 Invalid Blocks : 54316
Heartbeat CPU 7 instructions: 10000002 cycles: 4456929 heartbeat IPC: 2.2437 cumulative IPC: 2.2437 (Simulation time: 0 hr 15 min 37 sec) 
 Total Blocks : 262144 Invalid Blocks : 54316
Heartbeat CPU 2 instructions: 20000003 cycles: 8887493 heartbeat IPC: 2.25653 cumulative IPC: 2.25035 (Simulation time: 0 hr 31 min 58 sec) 
 Total Blocks : 262144 Invalid Blocks : 15197
Heartbeat CPU 3 instructions: 20000003 cycles: 8888109 heartbeat IPC: 2.2564 cumulative IPC: 2.2502 (Simulation time: 0 hr 31 min 58 sec) 
 Total Blocks : 262144 Invalid Blocks : 15197
Heartbeat CPU 0 instructions: 20000003 cycles: 8888192 heartbeat IPC: 2.25632 cumulative IPC: 2.25018 (Simulation time: 0 hr 31 min 58 sec) 
 Total Blocks : 262144 Invalid Blocks : 15197
Heartbeat CPU 1 instructions: 20000003 cycles: 8888384 heartbeat IPC: 2.25628 cumulative IPC: 2.25013 (Simulation time: 0 hr 31 min 58 sec) 
 Total Blocks : 262144 Invalid Blocks : 15197
Heartbeat CPU 4 instructions: 20000003 cycles: 8888682 heartbeat IPC: 2.25623 cumulative IPC: 2.25005 (Simulation time: 0 hr 31 min 58 sec) 
 Total Blocks : 262144 Invalid Blocks : 15197
Heartbeat CPU 5 instructions: 20000003 cycles: 8888917 heartbeat IPC: 2.25614 cumulative IPC: 2.24999 (Simulation time: 0 hr 31 min 58 sec) 
 Total Blocks : 262144 Invalid Blocks : 15197
Heartbeat CPU 6 instructions: 20000003 cycles: 8888968 heartbeat IPC: 2.25616 cumulative IPC: 2.24998 (Simulation time: 0 hr 31 min 58 sec) 
 Total Blocks : 262144 Invalid Blocks : 15197
Heartbeat CPU 7 instructions: 20000003 cycles: 8889428 heartbeat IPC: 2.25606 cumulative IPC: 2.24986 (Simulation time: 0 hr 31 min 58 sec) 
 Total Blocks : 262144 Invalid Blocks : 15197
Heartbeat CPU 2 instructions: 30000002 cycles: 13319728 heartbeat IPC: 2.2562 cumulative IPC: 2.2523 (Simulation time: 0 hr 48 min 13 sec) 
 Total Blocks : 262144 Invalid Blocks : 4279
Heartbeat CPU 3 instructions: 30000002 cycles: 13320627 heartbeat IPC: 2.25605 cumulative IPC: 2.25215 (Simulation time: 0 hr 48 min 13 sec) 
 Total Blocks : 262144 Invalid Blocks : 4279
Heartbeat CPU 0 instructions: 30000002 cycles: 13320802 heartbeat IPC: 2.25601 cumulative IPC: 2.25212 (Simulation time: 0 hr 48 min 13 sec) 
 Total Blocks : 262144 Invalid Blocks : 4279
Heartbeat CPU 1 instructions: 30000002 cycles: 13321169 heartbeat IPC: 2.25592 cumulative IPC: 2.25205 (Simulation time: 0 hr 48 min 13 sec) 
 Total Blocks : 262144 Invalid Blocks : 4279
Heartbeat CPU 4 instructions: 30000002 cycles: 13321569 heartbeat IPC: 2.25587 cumulative IPC: 2.25199 (Simulation time: 0 hr 48 min 14 sec) 
 Total Blocks : 262144 Invalid Blocks : 4279
Heartbeat CPU 6 instructions: 30000002 cycles: 13321859 heartbeat IPC: 2.25586 cumulative IPC: 2.25194 (Simulation time: 0 hr 48 min 14 sec) 
 Total Blocks : 262144 Invalid Blocks : 4279
Heartbeat CPU 5 instructions: 30000002 cycles: 13321884 heartbeat IPC: 2.25583 cumulative IPC: 2.25193 (Simulation time: 0 hr 48 min 14 sec) 
 Total Blocks : 262144 Invalid Blocks : 4279
Heartbeat CPU 7 instructions: 30000002 cycles: 13322514 heartbeat IPC: 2.25576 cumulative IPC: 2.25183 (Simulation time: 0 hr 48 min 14 sec) 
 Total Blocks : 262144 Invalid Blocks : 4279
Heartbeat CPU 2 instructions: 40000000 cycles: 17752108 heartbeat IPC: 2.25612 cumulative IPC: 2.25325 (Simulation time: 1 hr 4 min 44 sec) 
 Total Blocks : 262144 Invalid Blocks : 1190
Heartbeat CPU 3 instructions: 40000000 cycles: 17753208 heartbeat IPC: 2.25602 cumulative IPC: 2.25311 (Simulation time: 1 hr 4 min 44 sec) 
 Total Blocks : 262144 Invalid Blocks : 1188
Heartbeat CPU 0 instructions: 40000000 cycles: 17753459 heartbeat IPC: 2.25598 cumulative IPC: 2.25308 (Simulation time: 1 hr 4 min 44 sec) 
 Total Blocks : 262144 Invalid Blocks : 1188
Heartbeat CPU 1 instructions: 40000000 cycles: 17753867 heartbeat IPC: 2.25596 cumulative IPC: 2.25303 (Simulation time: 1 hr 4 min 44 sec) 
 Total Blocks : 262144 Invalid Blocks : 1188
Heartbeat CPU 6 instructions: 40000000 cycles: 17754569 heartbeat IPC: 2.25596 cumulative IPC: 2.25294 (Simulation time: 1 hr 4 min 44 sec) 
 Total Blocks : 262144 Invalid Blocks : 1188
Heartbeat CPU 4 instructions: 40000000 cycles: 17754571 heartbeat IPC: 2.25581 cumulative IPC: 2.25294 (Simulation time: 1 hr 4 min 44 sec) 
 Total Blocks : 262144 Invalid Blocks : 1188
Heartbeat CPU 5 instructions: 40000000 cycles: 17754713 heartbeat IPC: 2.2559 cumulative IPC: 2.25292 (Simulation time: 1 hr 4 min 44 sec) 
 Total Blocks : 262144 Invalid Blocks : 1188
Heartbeat CPU 7 instructions: 40000000 cycles: 17755659 heartbeat IPC: 2.25573 cumulative IPC: 2.2528 (Simulation time: 1 hr 4 min 44 sec) 
 Total Blocks : 262144 Invalid Blocks : 1187
Heartbeat CPU 2 instructions: 50000003 cycles: 22039954 heartbeat IPC: 2.33217 cumulative IPC: 2.26861 (Simulation time: 1 hr 21 min 29 sec) 
 Total Blocks : 262144 Invalid Blocks : 375
Heartbeat CPU 3 instructions: 50000001 cycles: 22041102 heartbeat IPC: 2.33215 cumulative IPC: 2.26849 (Simulation time: 1 hr 21 min 30 sec) 
 Total Blocks : 262144 Invalid Blocks : 375
Heartbeat CPU 0 instructions: 50000001 cycles: 22041589 heartbeat IPC: 2.33202 cumulative IPC: 2.26844 (Simulation time: 1 hr 21 min 30 sec) 
 Total Blocks : 262144 Invalid Blocks : 375
Heartbeat CPU 1 instructions: 50000001 cycles: 22041913 heartbeat IPC: 2.33206 cumulative IPC: 2.26841 (Simulation time: 1 hr 21 min 30 sec) 
 Total Blocks : 262144 Invalid Blocks : 375
Heartbeat CPU 4 instructions: 50000003 cycles: 22043026 heartbeat IPC: 2.33184 cumulative IPC: 2.26829 (Simulation time: 1 hr 21 min 30 sec) 
 Total Blocks : 262144 Invalid Blocks : 373
Heartbeat CPU 6 instructions: 50000001 cycles: 22043058 heartbeat IPC: 2.33182 cumulative IPC: 2.26829 (Simulation time: 1 hr 21 min 30 sec) 
 Total Blocks : 262144 Invalid Blocks : 373
Heartbeat CPU 5 instructions: 50000001 cycles: 22043283 heartbeat IPC: 2.33178 cumulative IPC: 2.26826 (Simulation time: 1 hr 21 min 30 sec) 
 Total Blocks : 262144 Invalid Blocks : 372
Heartbeat CPU 7 instructions: 50000001 cycles: 22044486 heartbeat IPC: 2.33164 cumulative IPC: 2.26814 (Simulation time: 1 hr 21 min 31 sec) 
 Total Blocks : 262144 Invalid Blocks : 371
Heartbeat CPU 2 instructions: 60000003 cycles: 26248714 heartbeat IPC: 2.376 cumulative IPC: 2.28583 (Simulation time: 1 hr 38 min 3 sec) 
 Total Blocks : 262144 Invalid Blocks : 96
Heartbeat CPU 3 instructions: 60000003 cycles: 26249950 heartbeat IPC: 2.37595 cumulative IPC: 2.28572 (Simulation time: 1 hr 38 min 4 sec) 
 Total Blocks : 262144 Invalid Blocks : 96
Heartbeat CPU 0 instructions: 60000003 cycles: 26250474 heartbeat IPC: 2.37593 cumulative IPC: 2.28567 (Simulation time: 1 hr 38 min 4 sec) 
 Total Blocks : 262144 Invalid Blocks : 96
Heartbeat CPU 1 instructions: 60000003 cycles: 26250929 heartbeat IPC: 2.37585 cumulative IPC: 2.28563 (Simulation time: 1 hr 38 min 4 sec) 
 Total Blocks : 262144 Invalid Blocks : 96
Heartbeat CPU 5 instructions: 60000003 cycles: 26252353 heartbeat IPC: 2.37582 cumulative IPC: 2.28551 (Simulation time: 1 hr 38 min 4 sec) 
 Total Blocks : 262144 Invalid Blocks : 96
Heartbeat CPU 4 instructions: 60000003 cycles: 26252367 heartbeat IPC: 2.37567 cumulative IPC: 2.28551 (Simulation time: 1 hr 38 min 4 sec) 
 Total Blocks : 262144 Invalid Blocks : 96
Heartbeat CPU 6 instructions: 60000003 cycles: 26252413 heartbeat IPC: 2.37566 cumulative IPC: 2.2855 (Simulation time: 1 hr 38 min 4 sec) 
 Total Blocks : 262144 Invalid Blocks : 96
Heartbeat CPU 7 instructions: 60000003 cycles: 26254182 heartbeat IPC: 2.37547 cumulative IPC: 2.28535 (Simulation time: 1 hr 38 min 4 sec) 
 Total Blocks : 262144 Invalid Blocks : 96
Heartbeat CPU 2 instructions: 70000001 cycles: 30349677 heartbeat IPC: 2.43845 cumulative IPC: 2.30645 (Simulation time: 1 hr 55 min 28 sec) 
 Total Blocks : 262144 Invalid Blocks : 29
Heartbeat CPU 3 instructions: 70000001 cycles: 30351119 heartbeat IPC: 2.43833 cumulative IPC: 2.30634 (Simulation time: 1 hr 55 min 28 sec) 
 Total Blocks : 262144 Invalid Blocks : 29
Heartbeat CPU 0 instructions: 70000001 cycles: 30351401 heartbeat IPC: 2.43847 cumulative IPC: 2.30632 (Simulation time: 1 hr 55 min 28 sec) 
 Total Blocks : 262144 Invalid Blocks : 29
Heartbeat CPU 1 instructions: 70000001 cycles: 30352018 heartbeat IPC: 2.43838 cumulative IPC: 2.30627 (Simulation time: 1 hr 55 min 28 sec) 
 Total Blocks : 262144 Invalid Blocks : 29
Heartbeat CPU 5 instructions: 70000001 cycles: 30353666 heartbeat IPC: 2.43824 cumulative IPC: 2.30615 (Simulation time: 1 hr 55 min 28 sec) 
 Total Blocks : 262144 Invalid Blocks : 29
Heartbeat CPU 6 instructions: 70000001 cycles: 30353676 heartbeat IPC: 2.43827 cumulative IPC: 2.30615 (Simulation time: 1 hr 55 min 28 sec) 
 Total Blocks : 262144 Invalid Blocks : 29
Heartbeat CPU 4 instructions: 70000001 cycles: 30353735 heartbeat IPC: 2.43821 cumulative IPC: 2.30614 (Simulation time: 1 hr 55 min 28 sec) 
 Total Blocks : 262144 Invalid Blocks : 29
Heartbeat CPU 7 instructions: 70000001 cycles: 30355856 heartbeat IPC: 2.43803 cumulative IPC: 2.30598 (Simulation time: 1 hr 55 min 29 sec) 
 Total Blocks : 262144 Invalid Blocks : 29
Heartbeat CPU 2 instructions: 80000003 cycles: 34396727 heartbeat IPC: 2.47094 cumulative IPC: 2.3258 (Simulation time: 2 hr 11 min 39 sec) 
 Total Blocks : 262144 Invalid Blocks : 5
Heartbeat CPU 3 instructions: 80000003 cycles: 34398153 heartbeat IPC: 2.47095 cumulative IPC: 2.32571 (Simulation time: 2 hr 11 min 39 sec) 
 Total Blocks : 262144 Invalid Blocks : 5
Heartbeat CPU 0 instructions: 80000003 cycles: 34398341 heartbeat IPC: 2.471 cumulative IPC: 2.32569 (Simulation time: 2 hr 11 min 39 sec) 
 Total Blocks : 262144 Invalid Blocks : 5
Heartbeat CPU 1 instructions: 80000003 cycles: 34398972 heartbeat IPC: 2.47099 cumulative IPC: 2.32565 (Simulation time: 2 hr 11 min 39 sec) 
 Total Blocks : 262144 Invalid Blocks : 5
Heartbeat CPU 5 instructions: 80000003 cycles: 34400687 heartbeat IPC: 2.47095 cumulative IPC: 2.32554 (Simulation time: 2 hr 11 min 39 sec) 
 Total Blocks : 262144 Invalid Blocks : 5
Heartbeat CPU 6 instructions: 80000003 cycles: 34400693 heartbeat IPC: 2.47096 cumulative IPC: 2.32553 (Simulation time: 2 hr 11 min 39 sec) 
 Total Blocks : 262144 Invalid Blocks : 5
Heartbeat CPU 4 instructions: 80000003 cycles: 34400757 heartbeat IPC: 2.47095 cumulative IPC: 2.32553 (Simulation time: 2 hr 11 min 39 sec) 
 Total Blocks : 262144 Invalid Blocks : 5
Heartbeat CPU 7 instructions: 80000003 cycles: 34402816 heartbeat IPC: 2.47099 cumulative IPC: 2.32539 (Simulation time: 2 hr 11 min 40 sec) 
 Total Blocks : 262144 Invalid Blocks : 5
Heartbeat CPU 2 instructions: 90000002 cycles: 38961370 heartbeat IPC: 2.19075 cumulative IPC: 2.30998 (Simulation time: 2 hr 26 min 3 sec) 
 Total Blocks : 262144 Invalid Blocks : 1
Heartbeat CPU 3 instructions: 90000002 cycles: 38962795 heartbeat IPC: 2.19075 cumulative IPC: 2.3099 (Simulation time: 2 hr 26 min 4 sec) 
 Total Blocks : 262144 Invalid Blocks : 1
Heartbeat CPU 0 instructions: 90000002 cycles: 38963002 heartbeat IPC: 2.19074 cumulative IPC: 2.30988 (Simulation time: 2 hr 26 min 4 sec) 
 Total Blocks : 262144 Invalid Blocks : 1
Heartbeat CPU 1 instructions: 90000002 cycles: 38963655 heartbeat IPC: 2.19073 cumulative IPC: 2.30984 (Simulation time: 2 hr 26 min 4 sec) 
 Total Blocks : 262144 Invalid Blocks : 1
Heartbeat CPU 5 instructions: 90000002 cycles: 38965265 heartbeat IPC: 2.19078 cumulative IPC: 2.30975 (Simulation time: 2 hr 26 min 4 sec) 
 Total Blocks : 262144 Invalid Blocks : 1
Heartbeat CPU 4 instructions: 90000002 cycles: 38965403 heartbeat IPC: 2.19075 cumulative IPC: 2.30974 (Simulation time: 2 hr 26 min 4 sec) 
 Total Blocks : 262144 Invalid Blocks : 1
Heartbeat CPU 6 instructions: 90000002 cycles: 38965527 heartbeat IPC: 2.19066 cumulative IPC: 2.30973 (Simulation time: 2 hr 26 min 4 sec) 
 Total Blocks : 262144 Invalid Blocks : 1
Heartbeat CPU 7 instructions: 90000002 cycles: 38968911 heartbeat IPC: 2.19005 cumulative IPC: 2.30953 (Simulation time: 2 hr 26 min 5 sec) 
 Total Blocks : 262144 Invalid Blocks : 1
Heartbeat CPU 2 instructions: 100000002 cycles: 43295930 heartbeat IPC: 2.30704 cumulative IPC: 2.30969 (Simulation time: 2 hr 42 min 38 sec) 
 Total Blocks : 262144 Invalid Blocks : 0
Heartbeat CPU 3 instructions: 100000002 cycles: 43297350 heartbeat IPC: 2.30704 cumulative IPC: 2.30961 (Simulation time: 2 hr 42 min 38 sec) 
 Total Blocks : 262144 Invalid Blocks : 0
Heartbeat CPU 0 instructions: 100000002 cycles: 43297534 heartbeat IPC: 2.30705 cumulative IPC: 2.3096 (Simulation time: 2 hr 42 min 38 sec) 
 Total Blocks : 262144 Invalid Blocks : 0
Heartbeat CPU 1 instructions: 100000002 cycles: 43298214 heartbeat IPC: 2.30704 cumulative IPC: 2.30956 (Simulation time: 2 hr 42 min 38 sec) 
 Total Blocks : 262144 Invalid Blocks : 0
Heartbeat CPU 5 instructions: 100000002 cycles: 43299842 heartbeat IPC: 2.30703 cumulative IPC: 2.30948 (Simulation time: 2 hr 42 min 39 sec) 
 Total Blocks : 262144 Invalid Blocks : 0
Heartbeat CPU 4 instructions: 100000002 cycles: 43300010 heartbeat IPC: 2.30701 cumulative IPC: 2.30947 (Simulation time: 2 hr 42 min 39 sec) 
 Total Blocks : 262144 Invalid Blocks : 0
Heartbeat CPU 6 instructions: 100000002 cycles: 43300256 heartbeat IPC: 2.30695 cumulative IPC: 2.30946 (Simulation time: 2 hr 42 min 39 sec) 
 Total Blocks : 262144 Invalid Blocks : 0
Heartbeat CPU 7 instructions: 100000002 cycles: 43303082 heartbeat IPC: 2.30725 cumulative IPC: 2.3093 (Simulation time: 2 hr 42 min 40 sec) 
 Total Blocks : 262144 Invalid Blocks : 0
Heartbeat CPU 2 instructions: 110000000 cycles: 47645903 heartbeat IPC: 2.29886 cumulative IPC: 2.3087 (Simulation time: 3 hr 2 min 11 sec) 
 Total Blocks : 262144 Invalid Blocks : 0
Heartbeat CPU 3 instructions: 110000000 cycles: 47647337 heartbeat IPC: 2.29886 cumulative IPC: 2.30863 (Simulation time: 3 hr 2 min 12 sec) 
 Total Blocks : 262144 Invalid Blocks : 0
Heartbeat CPU 0 instructions: 110000000 cycles: 47647640 heartbeat IPC: 2.29879 cumulative IPC: 2.30861 (Simulation time: 3 hr 2 min 12 sec) 
 Total Blocks : 262144 Invalid Blocks : 0
Heartbeat CPU 1 instructions: 110000000 cycles: 47648338 heartbeat IPC: 2.29878 cumulative IPC: 2.30858 (Simulation time: 3 hr 2 min 12 sec) 
 Total Blocks : 262144 Invalid Blocks : 0
Heartbeat CPU 5 instructions: 110000000 cycles: 47649998 heartbeat IPC: 2.29877 cumulative IPC: 2.3085 (Simulation time: 3 hr 2 min 12 sec) 
 Total Blocks : 262144 Invalid Blocks : 0
Heartbeat CPU 4 instructions: 110000000 cycles: 47649999 heartbeat IPC: 2.29886 cumulative IPC: 2.3085 (Simulation time: 3 hr 2 min 12 sec) 
 Total Blocks : 262144 Invalid Blocks : 0
Heartbeat CPU 6 instructions: 110000000 cycles: 47650267 heartbeat IPC: 2.29884 cumulative IPC: 2.30849 (Simulation time: 3 hr 2 min 12 sec) 
 Total Blocks : 262144 Invalid Blocks : 0
Heartbeat CPU 7 instructions: 110000000 cycles: 47653060 heartbeat IPC: 2.29886 cumulative IPC: 2.30835 (Simulation time: 3 hr 2 min 13 sec) 
 Total Blocks : 262144 Invalid Blocks : 0
Heartbeat CPU 2 instructions: 120000003 cycles: 51992485 heartbeat IPC: 2.30066 cumulative IPC: 2.30803 (Simulation time: 3 hr 17 min 29 sec) 
 Total Blocks : 262144 Invalid Blocks : 0
Heartbeat CPU 3 instructions: 120000003 cycles: 51993897 heartbeat IPC: 2.30067 cumulative IPC: 2.30796 (Simulation time: 3 hr 17 min 29 sec) 
 Total Blocks : 262144 Invalid Blocks : 0
Heartbeat CPU 0 instructions: 120000003 cycles: 51994189 heartbeat IPC: 2.30068 cumulative IPC: 2.30795 (Simulation time: 3 hr 17 min 29 sec) 
 Total Blocks : 262144 Invalid Blocks : 0
Heartbeat CPU 1 instructions: 120000003 cycles: 51994856 heartbeat IPC: 2.30069 cumulative IPC: 2.30792 (Simulation time: 3 hr 17 min 29 sec) 
 Total Blocks : 262144 Invalid Blocks : 0
Heartbeat CPU 5 instructions: 120000003 cycles: 51996570 heartbeat IPC: 2.30066 cumulative IPC: 2.30784 (Simulation time: 3 hr 17 min 29 sec) 
 Total Blocks : 262144 Invalid Blocks : 0
Heartbeat CPU 4 instructions: 120000003 cycles: 51996584 heartbeat IPC: 2.30066 cumulative IPC: 2.30784 (Simulation time: 3 hr 17 min 29 sec) 
 Total Blocks : 262144 Invalid Blocks : 0
Heartbeat CPU 6 instructions: 120000003 cycles: 51996831 heartbeat IPC: 2.30067 cumulative IPC: 2.30783 (Simulation time: 3 hr 17 min 29 sec) 
 Total Blocks : 262144 Invalid Blocks : 0
Heartbeat CPU 7 instructions: 120000003 cycles: 51999617 heartbeat IPC: 2.30067 cumulative IPC: 2.30771 (Simulation time: 3 hr 17 min 30 sec) 
 Total Blocks : 262144 Invalid Blocks : 0
Heartbeat CPU 2 instructions: 130000002 cycles: 56807218 heartbeat IPC: 2.07696 cumulative IPC: 2.28844 (Simulation time: 3 hr 32 min 39 sec) 
 Total Blocks : 262144 Invalid Blocks : 0
Heartbeat CPU 3 instructions: 130000002 cycles: 56808678 heartbeat IPC: 2.07694 cumulative IPC: 2.28838 (Simulation time: 3 hr 32 min 39 sec) 
 Total Blocks : 262144 Invalid Blocks : 0
Heartbeat CPU 0 instructions: 130000002 cycles: 56808961 heartbeat IPC: 2.07694 cumulative IPC: 2.28837 (Simulation time: 3 hr 32 min 39 sec) 
 Total Blocks : 262144 Invalid Blocks : 0
Heartbeat CPU 1 instructions: 130000002 cycles: 56809657 heartbeat IPC: 2.07693 cumulative IPC: 2.28834 (Simulation time: 3 hr 32 min 39 sec) 
 Total Blocks : 262144 Invalid Blocks : 0
Heartbeat CPU 4 instructions: 130000002 cycles: 56811251 heartbeat IPC: 2.07699 cumulative IPC: 2.28828 (Simulation time: 3 hr 32 min 40 sec) 
 Total Blocks : 262144 Invalid Blocks : 0
Heartbeat CPU 5 instructions: 130000002 cycles: 56811315 heartbeat IPC: 2.07695 cumulative IPC: 2.28828 (Simulation time: 3 hr 32 min 40 sec) 
 Total Blocks : 262144 Invalid Blocks : 0
Heartbeat CPU 6 instructions: 130000002 cycles: 56811506 heartbeat IPC: 2.07698 cumulative IPC: 2.28827 (Simulation time: 3 hr 32 min 40 sec) 
 Total Blocks : 262144 Invalid Blocks : 0
Heartbeat CPU 7 instructions: 130000002 cycles: 56814443 heartbeat IPC: 2.07692 cumulative IPC: 2.28815 (Simulation time: 3 hr 32 min 40 sec) 
 Total Blocks : 262144 Invalid Blocks : 0
Heartbeat CPU 2 instructions: 140000002 cycles: 60967913 heartbeat IPC: 2.40344 cumulative IPC: 2.29629 (Simulation time: 3 hr 44 min 29 sec) 
 Total Blocks : 262144 Invalid Blocks : 0
Heartbeat CPU 3 instructions: 140000002 cycles: 60969369 heartbeat IPC: 2.40345 cumulative IPC: 2.29624 (Simulation time: 3 hr 44 min 29 sec) 
 Total Blocks : 262144 Invalid Blocks : 0
Heartbeat CPU 0 instructions: 140000002 cycles: 60969631 heartbeat IPC: 2.40346 cumulative IPC: 2.29623 (Simulation time: 3 hr 44 min 29 sec) 
 Total Blocks : 262144 Invalid Blocks : 0
Heartbeat CPU 1 instructions: 140000002 cycles: 60970339 heartbeat IPC: 2.40345 cumulative IPC: 2.2962 (Simulation time: 3 hr 44 min 29 sec) 
 Total Blocks : 262144 Invalid Blocks : 0
Heartbeat CPU 4 instructions: 140000002 cycles: 60971931 heartbeat IPC: 2.40345 cumulative IPC: 2.29614 (Simulation time: 3 hr 44 min 29 sec) 
 Total Blocks : 262144 Invalid Blocks : 0
Heartbeat CPU 5 instructions: 140000002 cycles: 60971987 heartbeat IPC: 2.40346 cumulative IPC: 2.29614 (Simulation time: 3 hr 44 min 29 sec) 
 Total Blocks : 262144 Invalid Blocks : 0
Heartbeat CPU 6 instructions: 140000002 cycles: 60972183 heartbeat IPC: 2.40346 cumulative IPC: 2.29613 (Simulation time: 3 hr 44 min 29 sec) 
 Total Blocks : 262144 Invalid Blocks : 0
Heartbeat CPU 7 instructions: 140000002 cycles: 60975133 heartbeat IPC: 2.40345 cumulative IPC: 2.29602 (Simulation time: 3 hr 44 min 29 sec) 
 Total Blocks : 262144 Invalid Blocks : 0
Heartbeat CPU 2 instructions: 150000001 cycles: 65121842 heartbeat IPC: 2.40736 cumulative IPC: 2.30337 (Simulation time: 3 hr 51 min 30 sec) 
 Total Blocks : 262144 Invalid Blocks : 0
Heartbeat CPU 3 instructions: 150000001 cycles: 65123291 heartbeat IPC: 2.40736 cumulative IPC: 2.30332 (Simulation time: 3 hr 51 min 31 sec) 
 Total Blocks : 262144 Invalid Blocks : 0
Heartbeat CPU 0 instructions: 150000001 cycles: 65123545 heartbeat IPC: 2.40737 cumulative IPC: 2.30331 (Simulation time: 3 hr 51 min 31 sec) 
 Total Blocks : 262144 Invalid Blocks : 0
Heartbeat CPU 1 instructions: 150000001 cycles: 65124266 heartbeat IPC: 2.40736 cumulative IPC: 2.30329 (Simulation time: 3 hr 51 min 31 sec) 
 Total Blocks : 262144 Invalid Blocks : 0
Heartbeat CPU 4 instructions: 150000001 cycles: 65125822 heartbeat IPC: 2.40738 cumulative IPC: 2.30323 (Simulation time: 3 hr 51 min 31 sec) 
 Total Blocks : 262144 Invalid Blocks : 0
Heartbeat CPU 5 instructions: 150000001 cycles: 65125907 heartbeat IPC: 2.40736 cumulative IPC: 2.30323 (Simulation time: 3 hr 51 min 31 sec) 
 Total Blocks : 262144 Invalid Blocks : 0
Heartbeat CPU 6 instructions: 150000001 cycles: 65126066 heartbeat IPC: 2.40739 cumulative IPC: 2.30323 (Simulation time: 3 hr 51 min 31 sec) 
 Total Blocks : 262144 Invalid Blocks : 0
Heartbeat CPU 7 instructions: 150000001 cycles: 65129033 heartbeat IPC: 2.40738 cumulative IPC: 2.30312 (Simulation time: 3 hr 51 min 32 sec) 
 Total Blocks : 262144 Invalid Blocks : 0
Heartbeat CPU 2 instructions: 160000001 cycles: 69447904 heartbeat IPC: 2.31157 cumulative IPC: 2.30389 (Simulation time: 4 hr 2 min 28 sec) 
 Total Blocks : 262144 Invalid Blocks : 0
Heartbeat CPU 3 instructions: 160000001 cycles: 69449411 heartbeat IPC: 2.31154 cumulative IPC: 2.30384 (Simulation time: 4 hr 2 min 28 sec) 
 Total Blocks : 262144 Invalid Blocks : 0
Heartbeat CPU 0 instructions: 160000001 cycles: 69449548 heartbeat IPC: 2.3116 cumulative IPC: 2.30383 (Simulation time: 4 hr 2 min 28 sec) 
 Total Blocks : 262144 Invalid Blocks : 0
Heartbeat CPU 1 instructions: 160000001 cycles: 69450283 heartbeat IPC: 2.3116 cumulative IPC: 2.30381 (Simulation time: 4 hr 2 min 29 sec) 
 Total Blocks : 262144 Invalid Blocks : 0
Heartbeat CPU 4 instructions: 160000001 cycles: 69451921 heartbeat IPC: 2.31155 cumulative IPC: 2.30375 (Simulation time: 4 hr 2 min 29 sec) 
 Total Blocks : 262144 Invalid Blocks : 0
Heartbeat CPU 5 instructions: 160000001 cycles: 69452166 heartbeat IPC: 2.31147 cumulative IPC: 2.30374 (Simulation time: 4 hr 2 min 29 sec) 
 Total Blocks : 262144 Invalid Blocks : 0
Heartbeat CPU 6 instructions: 160000001 cycles: 69452339 heartbeat IPC: 2.31146 cumulative IPC: 2.30374 (Simulation time: 4 hr 2 min 29 sec) 
 Total Blocks : 262144 Invalid Blocks : 0
Heartbeat CPU 7 instructions: 160000001 cycles: 69455408 heartbeat IPC: 2.3114 cumulative IPC: 2.30364 (Simulation time: 4 hr 2 min 29 sec) 
 Total Blocks : 262144 Invalid Blocks : 0
Heartbeat CPU 2 instructions: 170000003 cycles: 73777126 heartbeat IPC: 2.30988 cumulative IPC: 2.30424 (Simulation time: 4 hr 13 min 56 sec) 
 Total Blocks : 262144 Invalid Blocks : 0
Heartbeat CPU 3 instructions: 170000003 cycles: 73778626 heartbeat IPC: 2.30989 cumulative IPC: 2.30419 (Simulation time: 4 hr 13 min 57 sec) 
 Total Blocks : 262144 Invalid Blocks : 0
Heartbeat CPU 0 instructions: 170000003 cycles: 73778790 heartbeat IPC: 2.30987 cumulative IPC: 2.30419 (Simulation time: 4 hr 13 min 57 sec) 
 Total Blocks : 262144 Invalid Blocks : 0
Heartbeat CPU 1 instructions: 170000003 cycles: 73779528 heartbeat IPC: 2.30987 cumulative IPC: 2.30416 (Simulation time: 4 hr 13 min 57 sec) 
 Total Blocks : 262144 Invalid Blocks : 0
Heartbeat CPU 4 instructions: 170000003 cycles: 73781152 heartbeat IPC: 2.30988 cumulative IPC: 2.30411 (Simulation time: 4 hr 13 min 57 sec) 
 Total Blocks : 262144 Invalid Blocks : 0
Heartbeat CPU 5 instructions: 170000003 cycles: 73781575 heartbeat IPC: 2.30978 cumulative IPC: 2.3041 (Simulation time: 4 hr 13 min 57 sec) 
 Total Blocks : 262144 Invalid Blocks : 0
Heartbeat CPU 6 instructions: 170000003 cycles: 73783019 heartbeat IPC: 2.30911 cumulative IPC: 2.30405 (Simulation time: 4 hr 13 min 58 sec) 
 Total Blocks : 262144 Invalid Blocks : 0
Heartbeat CPU 7 instructions: 170000003 cycles: 73786813 heartbeat IPC: 2.30872 cumulative IPC: 2.30393 (Simulation time: 4 hr 13 min 58 sec) 
 Total Blocks : 262144 Invalid Blocks : 0
Heartbeat CPU 2 instructions: 180000000 cycles: 78127933 heartbeat IPC: 2.29842 cumulative IPC: 2.30391 (Simulation time: 4 hr 27 min 43 sec) 
 Total Blocks : 262144 Invalid Blocks : 0
Heartbeat CPU 3 instructions: 180000000 cycles: 78129322 heartbeat IPC: 2.29848 cumulative IPC: 2.30387 (Simulation time: 4 hr 27 min 44 sec) 
 Total Blocks : 262144 Invalid Blocks : 0
Heartbeat CPU 0 instructions: 180000000 cycles: 78129815 heartbeat IPC: 2.29831 cumulative IPC: 2.30386 (Simulation time: 4 hr 27 min 44 sec) 
 Total Blocks : 262144 Invalid Blocks : 0
Heartbeat CPU 1 instructions: 180000000 cycles: 78130473 heartbeat IPC: 2.29835 cumulative IPC: 2.30384 (Simulation time: 4 hr 27 min 44 sec) 
 Total Blocks : 262144 Invalid Blocks : 0
Heartbeat CPU 4 instructions: 180000000 cycles: 78132117 heartbeat IPC: 2.29834 cumulative IPC: 2.30379 (Simulation time: 4 hr 27 min 44 sec) 
 Total Blocks : 262144 Invalid Blocks : 0
Heartbeat CPU 5 instructions: 180000000 cycles: 78132726 heartbeat IPC: 2.29824 cumulative IPC: 2.30377 (Simulation time: 4 hr 27 min 44 sec) 
 Total Blocks : 262144 Invalid Blocks : 0
Heartbeat CPU 6 instructions: 180000000 cycles: 78134888 heartbeat IPC: 2.29786 cumulative IPC: 2.30371 (Simulation time: 4 hr 27 min 45 sec) 
 Total Blocks : 262144 Invalid Blocks : 0
Heartbeat CPU 7 instructions: 180000000 cycles: 78139310 heartbeat IPC: 2.29753 cumulative IPC: 2.30358 (Simulation time: 4 hr 27 min 45 sec) 
 Total Blocks : 262144 Invalid Blocks : 0
Heartbeat CPU 2 instructions: 190000000 cycles: 82519897 heartbeat IPC: 2.27689 cumulative IPC: 2.30247 (Simulation time: 4 hr 44 min 23 sec) 
 Total Blocks : 262144 Invalid Blocks : 0
Heartbeat CPU 3 instructions: 190000000 cycles: 82521611 heartbeat IPC: 2.27672 cumulative IPC: 2.30243 (Simulation time: 4 hr 44 min 23 sec) 
 Total Blocks : 262144 Invalid Blocks : 0
Heartbeat CPU 0 instructions: 190000000 cycles: 82522053 heartbeat IPC: 2.27674 cumulative IPC: 2.30241 (Simulation time: 4 hr 44 min 23 sec) 
 Total Blocks : 262144 Invalid Blocks : 0
Heartbeat CPU 1 instructions: 190000000 cycles: 82522940 heartbeat IPC: 2.27662 cumulative IPC: 2.30239 (Simulation time: 4 hr 44 min 23 sec) 
 Total Blocks : 262144 Invalid Blocks : 0
Heartbeat CPU 4 instructions: 190000000 cycles: 82524701 heartbeat IPC: 2.27656 cumulative IPC: 2.30234 (Simulation time: 4 hr 44 min 24 sec) 
 Total Blocks : 262144 Invalid Blocks : 0
Heartbeat CPU 5 instructions: 190000000 cycles: 82525310 heartbeat IPC: 2.27656 cumulative IPC: 2.30232 (Simulation time: 4 hr 44 min 24 sec) 
 Total Blocks : 262144 Invalid Blocks : 0
Heartbeat CPU 6 instructions: 190000000 cycles: 82527431 heartbeat IPC: 2.27659 cumulative IPC: 2.30226 (Simulation time: 4 hr 44 min 24 sec) 
 Total Blocks : 262144 Invalid Blocks : 0
Heartbeat CPU 7 instructions: 190000000 cycles: 82532131 heartbeat IPC: 2.27644 cumulative IPC: 2.30213 (Simulation time: 4 hr 44 min 25 sec) 
 Total Blocks : 262144 Invalid Blocks : 0
Heartbeat CPU 2 instructions: 200000002 cycles: 86908046 heartbeat IPC: 2.27887 cumulative IPC: 2.30128 (Simulation time: 5 hr 1 min 7 sec) 
 Total Blocks : 262144 Invalid Blocks : 0
Heartbeat CPU 3 instructions: 200000002 cycles: 86910171 heartbeat IPC: 2.27865 cumulative IPC: 2.30123 (Simulation time: 5 hr 1 min 7 sec) 
 Total Blocks : 262144 Invalid Blocks : 0
Heartbeat CPU 0 instructions: 200000002 cycles: 86910515 heartbeat IPC: 2.2787 cumulative IPC: 2.30122 (Simulation time: 5 hr 1 min 7 sec) 
 Total Blocks : 262144 Invalid Blocks : 0
Heartbeat CPU 1 instructions: 200000002 cycles: 86911520 heartbeat IPC: 2.27864 cumulative IPC: 2.30119 (Simulation time: 5 hr 1 min 8 sec) 
 Total Blocks : 262144 Invalid Blocks : 0
Heartbeat CPU 4 instructions: 200000002 cycles: 86913569 heartbeat IPC: 2.27849 cumulative IPC: 2.30114 (Simulation time: 5 hr 1 min 8 sec) 
 Total Blocks : 262144 Invalid Blocks : 0
Heartbeat CPU 5 instructions: 200000002 cycles: 86914095 heartbeat IPC: 2.27854 cumulative IPC: 2.30112 (Simulation time: 5 hr 1 min 8 sec) 
 Total Blocks : 262144 Invalid Blocks : 0
Heartbeat CPU 6 instructions: 200000002 cycles: 86916133 heartbeat IPC: 2.27858 cumulative IPC: 2.30107 (Simulation time: 5 hr 1 min 9 sec) 
 Total Blocks : 262144 Invalid Blocks : 0
Heartbeat CPU 7 instructions: 200000002 cycles: 86921032 heartbeat IPC: 2.27848 cumulative IPC: 2.30094 (Simulation time: 5 hr 1 min 9 sec) 
 Total Blocks : 262144 Invalid Blocks : 0

Warmup complete CPU 0 instructions: 200019001 cycles: 86921032 (Simulation time: 5 hr 1 min 9 sec) 
Warmup complete CPU 1 instructions: 200017283 cycles: 86921032 (Simulation time: 5 hr 1 min 9 sec) 
Warmup complete CPU 2 instructions: 200024039 cycles: 86921032 (Simulation time: 5 hr 1 min 9 sec) 
Warmup complete CPU 3 instructions: 200019560 cycles: 86921032 (Simulation time: 5 hr 1 min 9 sec) 
Warmup complete CPU 4 instructions: 200014202 cycles: 86921032 (Simulation time: 5 hr 1 min 9 sec) 
Warmup complete CPU 5 instructions: 200013216 cycles: 86921032 (Simulation time: 5 hr 1 min 9 sec) 
Warmup complete CPU 6 instructions: 200009671 cycles: 86921032 (Simulation time: 5 hr 1 min 9 sec) 
Warmup complete CPU 7 instructions: 200000002 cycles: 86921032 (Simulation time: 5 hr 1 min 9 sec) 

Heartbeat CPU 2 instructions: 210000001 cycles: 96484340 heartbeat IPC: 1.04425 cumulative IPC: 1.04315 (Simulation time: 5 hr 23 min 56 sec) 
 Total Blocks : 262144 Invalid Blocks : 0
Heartbeat CPU 1 instructions: 210000001 cycles: 96530802 heartbeat IPC: 1.03958 cumulative IPC: 1.03881 (Simulation time: 5 hr 24 min 5 sec) 
 Total Blocks : 262144 Invalid Blocks : 0
Heartbeat CPU 5 instructions: 210000001 cycles: 96577980 heartbeat IPC: 1.03478 cumulative IPC: 1.03416 (Simulation time: 5 hr 24 min 13 sec) 
 Total Blocks : 262144 Invalid Blocks : 0
Heartbeat CPU 3 instructions: 210000001 cycles: 96594124 heartbeat IPC: 1.03264 cumulative IPC: 1.03177 (Simulation time: 5 hr 24 min 16 sec) 
 Total Blocks : 262144 Invalid Blocks : 0
Heartbeat CPU 6 instructions: 210000001 cycles: 96611337 heartbeat IPC: 1.03144 cumulative IPC: 1.03096 (Simulation time: 5 hr 24 min 18 sec) 
 Total Blocks : 262144 Invalid Blocks : 0
Heartbeat CPU 7 instructions: 210000001 cycles: 96613856 heartbeat IPC: 1.03169 cumulative IPC: 1.03169 (Simulation time: 5 hr 24 min 19 sec) 
 Total Blocks : 262144 Invalid Blocks : 0
Heartbeat CPU 0 instructions: 210000001 cycles: 96625800 heartbeat IPC: 1.02931 cumulative IPC: 1.02846 (Simulation time: 5 hr 24 min 21 sec) 
 Total Blocks : 262144 Invalid Blocks : 0
Heartbeat CPU 4 instructions: 210000001 cycles: 96633088 heartbeat IPC: 1.02886 cumulative IPC: 1.02819 (Simulation time: 5 hr 24 min 22 sec) 
 Total Blocks : 262144 Invalid Blocks : 0
Heartbeat CPU 2 instructions: 220000000 cycles: 105906454 heartbeat IPC: 1.06133 cumulative IPC: 1.05217 (Simulation time: 5 hr 47 min 2 sec) 
 Total Blocks : 262144 Invalid Blocks : 0
Heartbeat CPU 1 instructions: 220000000 cycles: 105955124 heartbeat IPC: 1.06108 cumulative IPC: 1.04984 (Simulation time: 5 hr 47 min 8 sec) 
 Total Blocks : 262144 Invalid Blocks : 0
Heartbeat CPU 5 instructions: 220000000 cycles: 106083192 heartbeat IPC: 1.05205 cumulative IPC: 1.04303 (Simulation time: 5 hr 47 min 29 sec) 
 Total Blocks : 262144 Invalid Blocks : 0
Heartbeat CPU 3 instructions: 220000000 cycles: 106193782 heartbeat IPC: 1.0417 cumulative IPC: 1.03672 (Simulation time: 5 hr 47 min 44 sec) 
 Total Blocks : 262144 Invalid Blocks : 0
Heartbeat CPU 6 instructions: 220000000 cycles: 106197828 heartbeat IPC: 1.04313 cumulative IPC: 1.03702 (Simulation time: 5 hr 47 min 45 sec) 
 Total Blocks : 262144 Invalid Blocks : 0
Heartbeat CPU 7 instructions: 220000000 cycles: 106240134 heartbeat IPC: 1.03882 cumulative IPC: 1.03524 (Simulation time: 5 hr 47 min 52 sec) 
 Total Blocks : 262144 Invalid Blocks : 0
Heartbeat CPU 4 instructions: 220000000 cycles: 106249492 heartbeat IPC: 1.03989 cumulative IPC: 1.03401 (Simulation time: 5 hr 47 min 55 sec) 
 Total Blocks : 262144 Invalid Blocks : 0
Heartbeat CPU 0 instructions: 220000000 cycles: 106250109 heartbeat IPC: 1.03904 cumulative IPC: 1.03373 (Simulation time: 5 hr 47 min 55 sec) 
 Total Blocks : 262144 Invalid Blocks : 0
Heartbeat CPU 2 instructions: 230000000 cycles: 115141038 heartbeat IPC: 1.08289 cumulative IPC: 1.06222 (Simulation time: 6 hr 10 min 47 sec) 
 Total Blocks : 262144 Invalid Blocks : 0
Heartbeat CPU 1 instructions: 230000000 cycles: 115216838 heartbeat IPC: 1.07971 cumulative IPC: 1.05962 (Simulation time: 6 hr 11 min 0 sec) 
 Total Blocks : 262144 Invalid Blocks : 0
Heartbeat CPU 5 instructions: 230000000 cycles: 115402935 heartbeat IPC: 1.07299 cumulative IPC: 1.05284 (Simulation time: 6 hr 11 min 31 sec) 
 Total Blocks : 262144 Invalid Blocks : 0
Heartbeat CPU 3 instructions: 230000000 cycles: 115589631 heartbeat IPC: 1.0643 cumulative IPC: 1.04576 (Simulation time: 6 hr 11 min 59 sec) 
 Total Blocks : 262144 Invalid Blocks : 0
Heartbeat CPU 6 instructions: 230000000 cycles: 115631898 heartbeat IPC: 1.05999 cumulative IPC: 1.04456 (Simulation time: 6 hr 12 min 5 sec) 
 Total Blocks : 262144 Invalid Blocks : 0
Heartbeat CPU 7 instructions: 230000000 cycles: 115710775 heartbeat IPC: 1.05589 cumulative IPC: 1.04204 (Simulation time: 6 hr 12 min 17 sec) 
 Total Blocks : 262144 Invalid Blocks : 0
Heartbeat CPU 4 instructions: 230000000 cycles: 115716854 heartbeat IPC: 1.05626 cumulative IPC: 1.04132 (Simulation time: 6 hr 12 min 18 sec) 
 Total Blocks : 262144 Invalid Blocks : 0
Heartbeat CPU 0 instructions: 230000000 cycles: 115721259 heartbeat IPC: 1.05584 cumulative IPC: 1.041 (Simulation time: 6 hr 12 min 19 sec) 
 Total Blocks : 262144 Invalid Blocks : 0
Heartbeat CPU 2 instructions: 240000001 cycles: 124380432 heartbeat IPC: 1.08232 cumulative IPC: 1.06718 (Simulation time: 6 hr 34 min 11 sec) 
 Total Blocks : 262144 Invalid Blocks : 0
Heartbeat CPU 1 instructions: 240000001 cycles: 124401670 heartbeat IPC: 1.08875 cumulative IPC: 1.06676 (Simulation time: 6 hr 34 min 16 sec) 
 Total Blocks : 262144 Invalid Blocks : 0
Heartbeat CPU 5 instructions: 240000001 cycles: 124517994 heartbeat IPC: 1.09709 cumulative IPC: 1.06356 (Simulation time: 6 hr 34 min 34 sec) 
 Total Blocks : 262144 Invalid Blocks : 0
Heartbeat CPU 3 instructions: 240000001 cycles: 124821722 heartbeat IPC: 1.08318 cumulative IPC: 1.05487 (Simulation time: 6 hr 35 min 25 sec) 
 Total Blocks : 262144 Invalid Blocks : 0
Heartbeat CPU 6 instructions: 240000001 cycles: 124945641 heartbeat IPC: 1.07368 cumulative IPC: 1.0517 (Simulation time: 6 hr 35 min 46 sec) 
 Total Blocks : 262144 Invalid Blocks : 0
Heartbeat CPU 4 instructions: 240000001 cycles: 125098909 heartbeat IPC: 1.06586 cumulative IPC: 1.04736 (Simulation time: 6 hr 36 min 11 sec) 
 Total Blocks : 262144 Invalid Blocks : 0
Heartbeat CPU 7 instructions: 240000001 cycles: 125102366 heartbeat IPC: 1.06478 cumulative IPC: 1.04763 (Simulation time: 6 hr 36 min 12 sec) 
 Total Blocks : 262144 Invalid Blocks : 0
Heartbeat CPU 0 instructions: 240000001 cycles: 125106021 heartbeat IPC: 1.06556 cumulative IPC: 1.04703 (Simulation time: 6 hr 36 min 12 sec) 
 Total Blocks : 262144 Invalid Blocks : 0
Heartbeat CPU 1 instructions: 250000001 cycles: 133292936 heartbeat IPC: 1.1247 cumulative IPC: 1.07787 (Simulation time: 6 hr 58 min 13 sec) 
 Total Blocks : 262144 Invalid Blocks : 0
Heartbeat CPU 2 instructions: 250000001 cycles: 133294715 heartbeat IPC: 1.1218 cumulative IPC: 1.07768 (Simulation time: 6 hr 58 min 13 sec) 
 Total Blocks : 262144 Invalid Blocks : 0
Heartbeat CPU 5 instructions: 250000001 cycles: 133362538 heartbeat IPC: 1.13064 cumulative IPC: 1.07634 (Simulation time: 6 hr 58 min 26 sec) 
 Total Blocks : 262144 Invalid Blocks : 0
Heartbeat CPU 3 instructions: 250000001 cycles: 133624084 heartbeat IPC: 1.13606 cumulative IPC: 1.07018 (Simulation time: 6 hr 59 min 11 sec) 
 Total Blocks : 262144 Invalid Blocks : 0
Heartbeat CPU 6 instructions: 250000001 cycles: 133852464 heartbeat IPC: 1.12273 cumulative IPC: 1.06518 (Simulation time: 6 hr 59 min 50 sec) 
 Total Blocks : 262144 Invalid Blocks : 0
Heartbeat CPU 4 instructions: 250000001 cycles: 133957842 heartbeat IPC: 1.1288 cumulative IPC: 1.0627 (Simulation time: 7 hr 0 min 12 sec) 
 Total Blocks : 262144 Invalid Blocks : 0
Heartbeat CPU 0 instructions: 250000001 cycles: 134022007 heartbeat IPC: 1.12158 cumulative IPC: 1.06115 (Simulation time: 7 hr 0 min 25 sec) 
 Total Blocks : 262144 Invalid Blocks : 0
Heartbeat CPU 7 instructions: 250000001 cycles: 134027256 heartbeat IPC: 1.12046 cumulative IPC: 1.06143 (Simulation time: 7 hr 0 min 27 sec) 
 Total Blocks : 262144 Invalid Blocks : 0
Heartbeat CPU 2 instructions: 260000001 cycles: 142344271 heartbeat IPC: 1.10503 cumulative IPC: 1.08214 (Simulation time: 7 hr 24 min 12 sec) 
 Total Blocks : 262144 Invalid Blocks : 0
Heartbeat CPU 1 instructions: 260000003 cycles: 142409898 heartbeat IPC: 1.09686 cumulative IPC: 1.08099 (Simulation time: 7 hr 24 min 23 sec) 
 Total Blocks : 262144 Invalid Blocks : 0
Heartbeat CPU 5 instructions: 260000001 cycles: 142413871 heartbeat IPC: 1.10481 cumulative IPC: 1.08098 (Simulation time: 7 hr 24 min 23 sec) 
 Total Blocks : 262144 Invalid Blocks : 0
Heartbeat CPU 3 instructions: 260000003 cycles: 142658045 heartbeat IPC: 1.10693 cumulative IPC: 1.07613 (Simulation time: 7 hr 25 min 3 sec) 
 Total Blocks : 262144 Invalid Blocks : 0
Heartbeat CPU 6 instructions: 260000003 cycles: 142986409 heartbeat IPC: 1.09482 cumulative IPC: 1.07001 (Simulation time: 7 hr 25 min 55 sec) 
 Total Blocks : 262144 Invalid Blocks : 0
Heartbeat CPU 4 instructions: 260000001 cycles: 143128604 heartbeat IPC: 1.09042 cumulative IPC: 1.06722 (Simulation time: 7 hr 26 min 17 sec) 
 Total Blocks : 262144 Invalid Blocks : 0
Heartbeat CPU 7 instructions: 260000001 cycles: 143186841 heartbeat IPC: 1.09175 cumulative IPC: 1.06637 (Simulation time: 7 hr 26 min 25 sec) 
 Total Blocks : 262144 Invalid Blocks : 0
Heartbeat CPU 0 instructions: 260000003 cycles: 143210778 heartbeat IPC: 1.08829 cumulative IPC: 1.06558 (Simulation time: 7 hr 26 min 28 sec) 
 Total Blocks : 262144 Invalid Blocks : 0
Heartbeat CPU 2 instructions: 270000001 cycles: 153331416 heartbeat IPC: 0.910155 cumulative IPC: 1.05369 (Simulation time: 7 hr 47 min 28 sec) 
 Total Blocks : 262144 Invalid Blocks : 0
Heartbeat CPU 1 instructions: 270000001 cycles: 153438591 heartbeat IPC: 0.906726 cumulative IPC: 1.05209 (Simulation time: 7 hr 47 min 42 sec) 
 Total Blocks : 262144 Invalid Blocks : 0
Heartbeat CPU 5 instructions: 270000001 cycles: 153452950 heartbeat IPC: 0.905873 cumulative IPC: 1.05193 (Simulation time: 7 hr 47 min 44 sec) 
 Total Blocks : 262144 Invalid Blocks : 0
Heartbeat CPU 3 instructions: 270000001 cycles: 153627885 heartbeat IPC: 0.91159 cumulative IPC: 1.04907 (Simulation time: 7 hr 48 min 7 sec) 
 Total Blocks : 262144 Invalid Blocks : 0
Heartbeat CPU 6 instructions: 270000001 cycles: 153907163 heartbeat IPC: 0.915688 cumulative IPC: 1.04485 (Simulation time: 7 hr 48 min 48 sec) 
 Total Blocks : 262144 Invalid Blocks : 0
Heartbeat CPU 4 instructions: 270000001 cycles: 153991736 heartbeat IPC: 0.920545 cumulative IPC: 1.04346 (Simulation time: 7 hr 48 min 58 sec) 
 Total Blocks : 262144 Invalid Blocks : 0
Heartbeat CPU 7 instructions: 270000001 cycles: 154092853 heartbeat IPC: 0.916925 cumulative IPC: 1.0421 (Simulation time: 7 hr 49 min 10 sec) 
 Total Blocks : 262144 Invalid Blocks : 0
Heartbeat CPU 0 instructions: 270000001 cycles: 154105832 heartbeat IPC: 0.917848 cumulative IPC: 1.04162 (Simulation time: 7 hr 49 min 11 sec) 
 Total Blocks : 262144 Invalid Blocks : 0
Heartbeat CPU 2 instructions: 280000000 cycles: 162796007 heartbeat IPC: 1.05657 cumulative IPC: 1.05405 (Simulation time: 8 hr 10 min 23 sec) 
 Total Blocks : 262144 Invalid Blocks : 0
Heartbeat CPU 1 instructions: 280000000 cycles: 162973821 heartbeat IPC: 1.04874 cumulative IPC: 1.05167 (Simulation time: 8 hr 10 min 46 sec) 
 Total Blocks : 262144 Invalid Blocks : 0
Heartbeat CPU 5 instructions: 280000000 cycles: 163040592 heartbeat IPC: 1.04301 cumulative IPC: 1.0508 (Simulation time: 8 hr 10 min 54 sec) 
 Total Blocks : 262144 Invalid Blocks : 0
Heartbeat CPU 3 instructions: 280000000 cycles: 163308307 heartbeat IPC: 1.03301 cumulative IPC: 1.04704 (Simulation time: 8 hr 11 min 28 sec) 
 Total Blocks : 262144 Invalid Blocks : 0
Heartbeat CPU 6 instructions: 280000000 cycles: 163732454 heartbeat IPC: 1.01778 cumulative IPC: 1.04139 (Simulation time: 8 hr 12 min 15 sec) 
 Total Blocks : 262144 Invalid Blocks : 0
Heartbeat CPU 4 instructions: 280000000 cycles: 163884204 heartbeat IPC: 1.01087 cumulative IPC: 1.03927 (Simulation time: 8 hr 12 min 34 sec) 
 Total Blocks : 262144 Invalid Blocks : 0
Heartbeat CPU 0 instructions: 280000000 cycles: 164044612 heartbeat IPC: 1.00616 cumulative IPC: 1.03705 (Simulation time: 8 hr 12 min 52 sec) 
 Total Blocks : 262144 Invalid Blocks : 0
Heartbeat CPU 7 instructions: 280000000 cycles: 164211551 heartbeat IPC: 0.988269 cumulative IPC: 1.03506 (Simulation time: 8 hr 13 min 14 sec) 
 Total Blocks : 262144 Invalid Blocks : 0
Heartbeat CPU 2 instructions: 290000002 cycles: 175359956 heartbeat IPC: 0.795928 cumulative IPC: 1.01738 (Simulation time: 8 hr 42 min 12 sec) 
 Total Blocks : 262144 Invalid Blocks : 0
Heartbeat CPU 1 instructions: 290000002 cycles: 175991481 heartbeat IPC: 0.768187 cumulative IPC: 1.01024 (Simulation time: 8 hr 44 min 0 sec) 
 Total Blocks : 262144 Invalid Blocks : 0
Heartbeat CPU 5 instructions: 290000002 cycles: 176344269 heartbeat IPC: 0.751672 cumulative IPC: 1.0063 (Simulation time: 8 hr 45 min 8 sec) 
 Total Blocks : 262144 Invalid Blocks : 0
Heartbeat CPU 3 instructions: 290000002 cycles: 176622386 heartbeat IPC: 0.751085 cumulative IPC: 1.00311 (Simulation time: 8 hr 45 min 59 sec) 
 Total Blocks : 262144 Invalid Blocks : 0
Heartbeat CPU 6 instructions: 290000002 cycles: 177247118 heartbeat IPC: 0.739937 cumulative IPC: 0.996283 (Simulation time: 8 hr 47 min 52 sec) 
 Total Blocks : 262144 Invalid Blocks : 0
Heartbeat CPU 4 instructions: 290000002 cycles: 177259904 heartbeat IPC: 0.747625 cumulative IPC: 0.996092 (Simulation time: 8 hr 47 min 55 sec) 
 Total Blocks : 262144 Invalid Blocks : 0
Heartbeat CPU 0 instructions: 290000002 cycles: 177580781 heartbeat IPC: 0.738762 cumulative IPC: 0.992513 (Simulation time: 8 hr 48 min 53 sec) 
 Total Blocks : 262144 Invalid Blocks : 0
Heartbeat CPU 7 instructions: 290000002 cycles: 177778746 heartbeat IPC: 0.737072 cumulative IPC: 0.99056 (Simulation time: 8 hr 49 min 30 sec) 
 Total Blocks : 262144 Invalid Blocks : 0
Heartbeat CPU 2 instructions: 300000000 cycles: 189290877 heartbeat IPC: 0.717827 cumulative IPC: 0.976615 (Simulation time: 9 hr 13 min 3 sec) 
 Total Blocks : 262144 Invalid Blocks : 0
Heartbeat CPU 1 instructions: 300000000 cycles: 189821960 heartbeat IPC: 0.723041 cumulative IPC: 0.971641 (Simulation time: 9 hr 13 min 55 sec) 
 Total Blocks : 262144 Invalid Blocks : 0
Heartbeat CPU 5 instructions: 300000000 cycles: 190141021 heartbeat IPC: 0.724808 cumulative IPC: 0.968677 (Simulation time: 9 hr 14 min 32 sec) 
 Total Blocks : 262144 Invalid Blocks : 0
Heartbeat CPU 3 instructions: 300000000 cycles: 190295981 heartbeat IPC: 0.731336 cumulative IPC: 0.967163 (Simulation time: 9 hr 14 min 52 sec) 
 Total Blocks : 262144 Invalid Blocks : 0
Heartbeat CPU 6 instructions: 300000000 cycles: 190493348 heartbeat IPC: 0.754932 cumulative IPC: 0.965416 (Simulation time: 9 hr 15 min 16 sec) 
 Total Blocks : 262144 Invalid Blocks : 0
Heartbeat CPU 4 instructions: 300000000 cycles: 190510670 heartbeat IPC: 0.754673 cumulative IPC: 0.96521 (Simulation time: 9 hr 15 min 18 sec) 
 Total Blocks : 262144 Invalid Blocks : 0
Heartbeat CPU 0 instructions: 300000000 cycles: 190587337 heartbeat IPC: 0.768843 cumulative IPC: 0.96445 (Simulation time: 9 hr 15 min 27 sec) 
 Total Blocks : 262144 Invalid Blocks : 0
Heartbeat CPU 7 instructions: 300000000 cycles: 190683884 heartbeat IPC: 0.774885 cumulative IPC: 0.963736 (Simulation time: 9 hr 15 min 37 sec) 
 Total Blocks : 262144 Invalid Blocks : 0
Heartbeat CPU 2 instructions: 310000000 cycles: 200509148 heartbeat IPC: 0.891403 cumulative IPC: 0.9682 (Simulation time: 9 hr 37 min 2 sec) 
 Total Blocks : 262144 Invalid Blocks : 0
Heartbeat CPU 1 instructions: 310000000 cycles: 201091296 heartbeat IPC: 0.887364 cumulative IPC: 0.963322 (Simulation time: 9 hr 38 min 11 sec) 
 Total Blocks : 262144 Invalid Blocks : 0
Heartbeat CPU 5 instructions: 310000000 cycles: 201512877 heartbeat IPC: 0.879364 cumulative IPC: 0.959813 (Simulation time: 9 hr 39 min 1 sec) 
 Total Blocks : 262144 Invalid Blocks : 0
Heartbeat CPU 3 instructions: 310000000 cycles: 201675062 heartbeat IPC: 0.878806 cumulative IPC: 0.958402 (Simulation time: 9 hr 39 min 21 sec) 
 Total Blocks : 262144 Invalid Blocks : 0
Heartbeat CPU 6 instructions: 310000000 cycles: 202099880 heartbeat IPC: 0.861584 cumulative IPC: 0.954952 (Simulation time: 9 hr 40 min 9 sec) 
 Total Blocks : 262144 Invalid Blocks : 0
Heartbeat CPU 4 instructions: 310000000 cycles: 202109416 heartbeat IPC: 0.862162 cumulative IPC: 0.954834 (Simulation time: 9 hr 40 min 10 sec) 
 Total Blocks : 262144 Invalid Blocks : 0
Heartbeat CPU 0 instructions: 310000000 cycles: 202153943 heartbeat IPC: 0.864558 cumulative IPC: 0.954423 (Simulation time: 9 hr 40 min 16 sec) 
 Total Blocks : 262144 Invalid Blocks : 0
Heartbeat CPU 7 instructions: 310000000 cycles: 202178238 heartbeat IPC: 0.869992 cumulative IPC: 0.954387 (Simulation time: 9 hr 40 min 19 sec) 
 Total Blocks : 262144 Invalid Blocks : 0
Heartbeat CPU 2 instructions: 320000002 cycles: 211041746 heartbeat IPC: 0.949434 cumulative IPC: 0.966607 (Simulation time: 10 hr 1 min 34 sec) 
 Total Blocks : 262144 Invalid Blocks : 0
Heartbeat CPU 1 instructions: 320000002 cycles: 212510493 heartbeat IPC: 0.875718 cumulative IPC: 0.955357 (Simulation time: 10 hr 4 min 39 sec) 
 Total Blocks : 262144 Invalid Blocks : 0
Heartbeat CPU 5 instructions: 320000002 cycles: 213608601 heartbeat IPC: 0.826739 cumulative IPC: 0.947108 (Simulation time: 10 hr 6 min 58 sec) 
 Total Blocks : 262144 Invalid Blocks : 0
Heartbeat CPU 3 instructions: 320000002 cycles: 213861304 heartbeat IPC: 0.820598 cumulative IPC: 0.945172 (Simulation time: 10 hr 7 min 28 sec) 
 Total Blocks : 262144 Invalid Blocks : 0
Heartbeat CPU 6 instructions: 320000002 cycles: 214452013 heartbeat IPC: 0.809577 cumulative IPC: 0.940872 (Simulation time: 10 hr 8 min 39 sec) 
 Total Blocks : 262144 Invalid Blocks : 0
Heartbeat CPU 4 instructions: 320000002 cycles: 214455991 heartbeat IPC: 0.809941 cumulative IPC: 0.940807 (Simulation time: 10 hr 8 min 39 sec) 
 Total Blocks : 262144 Invalid Blocks : 0
Heartbeat CPU 0 instructions: 320000002 cycles: 214486038 heartbeat IPC: 0.810892 cumulative IPC: 0.940548 (Simulation time: 10 hr 8 min 42 sec) 
 Total Blocks : 262144 Invalid Blocks : 0
Heartbeat CPU 7 instructions: 320000002 cycles: 214495176 heartbeat IPC: 0.81189 cumulative IPC: 0.940629 (Simulation time: 10 hr 8 min 43 sec) 
 Total Blocks : 262144 Invalid Blocks : 0
Heartbeat CPU 2 instructions: 330000000 cycles: 219649793 heartbeat IPC: 1.1617 cumulative IPC: 0.97926 (Simulation time: 10 hr 17 min 42 sec) 
 Total Blocks : 262144 Invalid Blocks : 0
Heartbeat CPU 1 instructions: 330000000 cycles: 221460451 heartbeat IPC: 1.11732 cumulative IPC: 0.966131 (Simulation time: 10 hr 20 min 48 sec) 
 Total Blocks : 262144 Invalid Blocks : 0
Heartbeat CPU 5 instructions: 330000000 cycles: 222791188 heartbeat IPC: 1.08902 cumulative IPC: 0.956699 (Simulation time: 10 hr 23 min 9 sec) 
 Total Blocks : 262144 Invalid Blocks : 0
Heartbeat CPU 3 instructions: 330000000 cycles: 223038774 heartbeat IPC: 1.08962 cumulative IPC: 0.954912 (Simulation time: 10 hr 23 min 32 sec) 
 Total Blocks : 262144 Invalid Blocks : 0
Heartbeat CPU 7 instructions: 330000000 cycles: 223632306 heartbeat IPC: 1.09444 cumulative IPC: 0.950909 (Simulation time: 10 hr 24 min 39 sec) 
 Total Blocks : 262144 Invalid Blocks : 0
Heartbeat CPU 6 instructions: 330000000 cycles: 223634862 heartbeat IPC: 1.08899 cumulative IPC: 0.950821 (Simulation time: 10 hr 24 min 39 sec) 
 Total Blocks : 262144 Invalid Blocks : 0
Heartbeat CPU 4 instructions: 330000000 cycles: 223685457 heartbeat IPC: 1.08349 cumulative IPC: 0.950436 (Simulation time: 10 hr 24 min 45 sec) 
 Total Blocks : 262144 Invalid Blocks : 0
Heartbeat CPU 0 instructions: 330000000 cycles: 223733580 heartbeat IPC: 1.08137 cumulative IPC: 0.950066 (Simulation time: 10 hr 24 min 50 sec) 
 Total Blocks : 262144 Invalid Blocks : 0
Heartbeat CPU 2 instructions: 340000000 cycles: 229753483 heartbeat IPC: 0.989737 cumulative IPC: 0.980001 (Simulation time: 10 hr 38 min 23 sec) 
 Total Blocks : 262144 Invalid Blocks : 0
Heartbeat CPU 1 instructions: 340000000 cycles: 231520086 heartbeat IPC: 0.994072 cumulative IPC: 0.968075 (Simulation time: 10 hr 43 min 31 sec) 
 Total Blocks : 262144 Invalid Blocks : 0
Heartbeat CPU 5 instructions: 340000000 cycles: 233339501 heartbeat IPC: 0.948019 cumulative IPC: 0.956073 (Simulation time: 10 hr 46 min 44 sec) 
 Total Blocks : 262144 Invalid Blocks : 0
Heartbeat CPU 3 instructions: 340000000 cycles: 233755697 heartbeat IPC: 0.933104 cumulative IPC: 0.95332 (Simulation time: 10 hr 47 min 31 sec) 
 Total Blocks : 262144 Invalid Blocks : 0
Heartbeat CPU 7 instructions: 340000000 cycles: 235412582 heartbeat IPC: 0.848877 cumulative IPC: 0.942815 (Simulation time: 10 hr 50 min 26 sec) 
 Total Blocks : 262144 Invalid Blocks : 0
Heartbeat CPU 6 instructions: 340000000 cycles: 235422046 heartbeat IPC: 0.848379 cumulative IPC: 0.942689 (Simulation time: 10 hr 50 min 27 sec) 
 Total Blocks : 262144 Invalid Blocks : 0
Heartbeat CPU 0 instructions: 340000000 cycles: 235445120 heartbeat IPC: 0.853859 cumulative IPC: 0.94248 (Simulation time: 10 hr 50 min 30 sec) 
 Total Blocks : 262144 Invalid Blocks : 0
Heartbeat CPU 4 instructions: 340000000 cycles: 235449983 heartbeat IPC: 0.850013 cumulative IPC: 0.942482 (Simulation time: 10 hr 50 min 30 sec) 
 Total Blocks : 262144 Invalid Blocks : 0
Heartbeat CPU 2 instructions: 350000000 cycles: 240355994 heartbeat IPC: 0.943173 cumulative IPC: 0.977456 (Simulation time: 11 hr 0 min 8 sec) 
 Total Blocks : 262144 Invalid Blocks : 0
Heartbeat CPU 1 instructions: 350000000 cycles: 242059539 heartbeat IPC: 0.948816 cumulative IPC: 0.966767 (Simulation time: 11 hr 3 min 21 sec) 
 Total Blocks : 262144 Invalid Blocks : 0
Heartbeat CPU 5 instructions: 350000000 cycles: 243884477 heartbeat IPC: 0.948319 cumulative IPC: 0.955552 (Simulation time: 11 hr 6 min 37 sec) 
 Total Blocks : 262144 Invalid Blocks : 0
Heartbeat CPU 3 instructions: 350000000 cycles: 244270299 heartbeat IPC: 0.951058 cumulative IPC: 0.953169 (Simulation time: 11 hr 7 min 18 sec) 
 Total Blocks : 262144 Invalid Blocks : 0
Heartbeat CPU 6 instructions: 350000000 cycles: 245982172 heartbeat IPC: 0.946958 cumulative IPC: 0.942973 (Simulation time: 11 hr 10 min 22 sec) 
 Total Blocks : 262144 Invalid Blocks : 0
Heartbeat CPU 7 instructions: 350000000 cycles: 246000793 heartbeat IPC: 0.944447 cumulative IPC: 0.942923 (Simulation time: 11 hr 10 min 24 sec) 
 Total Blocks : 262144 Invalid Blocks : 0
Heartbeat CPU 0 instructions: 350000000 cycles: 246010938 heartbeat IPC: 0.946448 cumulative IPC: 0.942744 (Simulation time: 11 hr 10 min 25 sec) 
 Total Blocks : 262144 Invalid Blocks : 0
Heartbeat CPU 4 instructions: 350000000 cycles: 246025772 heartbeat IPC: 0.945556 cumulative IPC: 0.942686 (Simulation time: 11 hr 10 min 27 sec) 
 Total Blocks : 262144 Invalid Blocks : 0
Heartbeat CPU 2 instructions: 360000002 cycles: 250942025 heartbeat IPC: 0.944641 cumulative IPC: 0.975338 (Simulation time: 11 hr 20 min 7 sec) 
 Total Blocks : 262144 Invalid Blocks : 0
Heartbeat CPU 1 instructions: 360000002 cycles: 252739672 heartbeat IPC: 0.936318 cumulative IPC: 0.964805 (Simulation time: 11 hr 23 min 53 sec) 
 Total Blocks : 262144 Invalid Blocks : 0
Heartbeat CPU 5 instructions: 360000002 cycles: 255021161 heartbeat IPC: 0.897934 cumulative IPC: 0.951735 (Simulation time: 11 hr 28 min 35 sec) 
 Total Blocks : 262144 Invalid Blocks : 0
Heartbeat CPU 3 instructions: 360000002 cycles: 255298591 heartbeat IPC: 0.906759 cumulative IPC: 0.950129 (Simulation time: 11 hr 29 min 17 sec) 
 Total Blocks : 262144 Invalid Blocks : 0
Heartbeat CPU 6 instructions: 360000002 cycles: 257357426 heartbeat IPC: 0.879101 cumulative IPC: 0.93871 (Simulation time: 11 hr 33 min 53 sec) 
 Total Blocks : 262144 Invalid Blocks : 0
Heartbeat CPU 0 instructions: 360000002 cycles: 257386241 heartbeat IPC: 0.879098 cumulative IPC: 0.938496 (Simulation time: 11 hr 33 min 58 sec) 
 Total Blocks : 262144 Invalid Blocks : 0
Heartbeat CPU 7 instructions: 360000002 cycles: 257400426 heartbeat IPC: 0.877221 cumulative IPC: 0.93853 (Simulation time: 11 hr 33 min 59 sec) 
 Total Blocks : 262144 Invalid Blocks : 0
Heartbeat CPU 4 instructions: 360000002 cycles: 257413475 heartbeat IPC: 0.87814 cumulative IPC: 0.938375 (Simulation time: 11 hr 34 min 1 sec) 
 Total Blocks : 262144 Invalid Blocks : 0
Heartbeat CPU 2 instructions: 370000001 cycles: 260918108 heartbeat IPC: 1.0024 cumulative IPC: 0.97689 (Simulation time: 11 hr 41 min 29 sec) 
 Total Blocks : 262144 Invalid Blocks : 0
Heartbeat CPU 1 instructions: 370000001 cycles: 262598035 heartbeat IPC: 1.01437 cumulative IPC: 0.967587 (Simulation time: 11 hr 45 min 3 sec) 
 Total Blocks : 262144 Invalid Blocks : 0
Heartbeat CPU 5 instructions: 370000001 cycles: 264766070 heartbeat IPC: 1.02618 cumulative IPC: 0.955814 (Simulation time: 11 hr 49 min 51 sec) 
 Total Blocks : 262144 Invalid Blocks : 0
Heartbeat CPU 3 instructions: 370000001 cycles: 264917340 heartbeat IPC: 1.03964 cumulative IPC: 0.954966 (Simulation time: 11 hr 50 min 10 sec) 
 Total Blocks : 262144 Invalid Blocks : 0
Heartbeat CPU 6 instructions: 370000001 cycles: 267022550 heartbeat IPC: 1.03465 cumulative IPC: 0.943858 (Simulation time: 11 hr 54 min 40 sec) 
 Total Blocks : 262144 Invalid Blocks : 0
Heartbeat CPU 0 instructions: 370000000 cycles: 267138044 heartbeat IPC: 1.02545 cumulative IPC: 0.943202 (Simulation time: 11 hr 54 min 53 sec) 
 Total Blocks : 262144 Invalid Blocks : 0
Heartbeat CPU 4 instructions: 370000001 cycles: 267151219 heartbeat IPC: 1.02693 cumulative IPC: 0.943159 (Simulation time: 11 hr 54 min 55 sec) 
 Total Blocks : 262144 Invalid Blocks : 0
Heartbeat CPU 7 instructions: 370000001 cycles: 267155175 heartbeat IPC: 1.02514 cumulative IPC: 0.943218 (Simulation time: 11 hr 54 min 55 sec) 
 Total Blocks : 262144 Invalid Blocks : 0
Heartbeat CPU 2 instructions: 380000002 cycles: 270453505 heartbeat IPC: 1.04872 cumulative IPC: 0.980622 (Simulation time: 12 hr 2 min 13 sec) 
 Total Blocks : 262144 Invalid Blocks : 0
Heartbeat CPU 1 instructions: 380000002 cycles: 272133847 heartbeat IPC: 1.04868 cumulative IPC: 0.971762 (Simulation time: 12 hr 5 min 56 sec) 
 Total Blocks : 262144 Invalid Blocks : 0
Heartbeat CPU 5 instructions: 380000002 cycles: 274397418 heartbeat IPC: 1.03828 cumulative IPC: 0.96005 (Simulation time: 12 hr 11 min 0 sec) 
 Total Blocks : 262144 Invalid Blocks : 0
Heartbeat CPU 3 instructions: 380000002 cycles: 274456899 heartbeat IPC: 1.04827 cumulative IPC: 0.959712 (Simulation time: 12 hr 11 min 8 sec) 
 Total Blocks : 262144 Invalid Blocks : 0
Heartbeat CPU 6 instructions: 380000002 cycles: 276497163 heartbeat IPC: 1.05545 cumulative IPC: 0.949436 (Simulation time: 12 hr 15 min 34 sec) 
 Total Blocks : 262144 Invalid Blocks : 0
Heartbeat CPU 0 instructions: 380000002 cycles: 276817074 heartbeat IPC: 1.03316 cumulative IPC: 0.947787 (Simulation time: 12 hr 16 min 16 sec) 
 Total Blocks : 262144 Invalid Blocks : 0
Heartbeat CPU 4 instructions: 380000002 cycles: 276827113 heartbeat IPC: 1.0335 cumulative IPC: 0.947762 (Simulation time: 12 hr 16 min 17 sec) 
 Total Blocks : 262144 Invalid Blocks : 0
Heartbeat CPU 7 instructions: 380000002 cycles: 276833528 heartbeat IPC: 1.03323 cumulative IPC: 0.947805 (Simulation time: 12 hr 16 min 17 sec) 
 Total Blocks : 262144 Invalid Blocks : 0
Heartbeat CPU 2 instructions: 390000003 cycles: 279870032 heartbeat IPC: 1.06196 cumulative IPC: 0.984592 (Simulation time: 12 hr 22 min 59 sec) 
 Total Blocks : 262144 Invalid Blocks : 0
Heartbeat CPU 1 instructions: 390000001 cycles: 281689516 heartbeat IPC: 1.0465 cumulative IPC: 0.975428 (Simulation time: 12 hr 27 min 4 sec) 
 Total Blocks : 262144 Invalid Blocks : 0
Heartbeat CPU 5 instructions: 390000003 cycles: 284087058 heartbeat IPC: 1.03203 cumulative IPC: 0.963588 (Simulation time: 12 hr 32 min 26 sec) 
 Total Blocks : 262144 Invalid Blocks : 0
Heartbeat CPU 3 instructions: 390000001 cycles: 284103662 heartbeat IPC: 1.03662 cumulative IPC: 0.963475 (Simulation time: 12 hr 32 min 28 sec) 
 Total Blocks : 262144 Invalid Blocks : 0
Heartbeat CPU 6 instructions: 390000003 cycles: 285947701 heartbeat IPC: 1.05814 cumulative IPC: 0.954597 (Simulation time: 12 hr 36 min 34 sec) 
 Total Blocks : 262144 Invalid Blocks : 0
Heartbeat CPU 4 instructions: 390000003 cycles: 286440216 heartbeat IPC: 1.04025 cumulative IPC: 0.952218 (Simulation time: 12 hr 37 min 34 sec) 
 Total Blocks : 262144 Invalid Blocks : 0
Heartbeat CPU 0 instructions: 390000003 cycles: 286476803 heartbeat IPC: 1.03523 cumulative IPC: 0.95202 (Simulation time: 12 hr 37 min 40 sec) 
 Total Blocks : 262144 Invalid Blocks : 0
Heartbeat CPU 7 instructions: 390000001 cycles: 286554386 heartbeat IPC: 1.02872 cumulative IPC: 0.951745 (Simulation time: 12 hr 37 min 50 sec) 
 Total Blocks : 262144 Invalid Blocks : 0
Heartbeat CPU 2 instructions: 400000003 cycles: 289469084 heartbeat IPC: 1.04177 cumulative IPC: 0.987301 (Simulation time: 12 hr 44 min 13 sec) 
 Total Blocks : 262144 Invalid Blocks : 0
Finished CPU 2 instructions: 200000000 cycles: 202565890 cumulative IPC: 0.987333 (Simulation time: 12 hr 44 min 15 sec) 
Heartbeat CPU 1 instructions: 400000003 cycles: 291400853 heartbeat IPC: 1.02972 cumulative IPC: 0.978007 (Simulation time: 12 hr 48 min 13 sec) 
 Total Blocks : 262144 Invalid Blocks : 0
Finished CPU 1 instructions: 200000001 cycles: 204493709 cumulative IPC: 0.978025 (Simulation time: 12 hr 48 min 15 sec) 
Heartbeat CPU 5 instructions: 400000003 cycles: 293828595 heartbeat IPC: 1.02653 cumulative IPC: 0.966551 (Simulation time: 12 hr 53 min 28 sec) 
 Total Blocks : 262144 Invalid Blocks : 0
Finished CPU 5 instructions: 200000002 cycles: 206918190 cumulative IPC: 0.966566 (Simulation time: 12 hr 53 min 30 sec) 
Heartbeat CPU 3 instructions: 400000003 cycles: 293895811 heartbeat IPC: 1.02123 cumulative IPC: 0.966207 (Simulation time: 12 hr 53 min 39 sec) 
 Total Blocks : 262144 Invalid Blocks : 0
Finished CPU 3 instructions: 200000003 cycles: 206989688 cumulative IPC: 0.966232 (Simulation time: 12 hr 53 min 41 sec) 
Heartbeat CPU 6 instructions: 400000003 cycles: 295592144 heartbeat IPC: 1.03687 cumulative IPC: 0.9584 (Simulation time: 12 hr 57 min 26 sec) 
 Total Blocks : 262144 Invalid Blocks : 0
Finished CPU 6 instructions: 200000000 cycles: 208680412 cumulative IPC: 0.958403 (Simulation time: 12 hr 57 min 27 sec) 
Heartbeat CPU 4 instructions: 400000003 cycles: 296088816 heartbeat IPC: 1.03642 cumulative IPC: 0.956102 (Simulation time: 12 hr 58 min 31 sec) 
 Total Blocks : 262144 Invalid Blocks : 0
Finished CPU 4 instructions: 200000003 cycles: 209179643 cumulative IPC: 0.956116 (Simulation time: 12 hr 58 min 33 sec) 
Heartbeat CPU 0 instructions: 400000003 cycles: 296103546 heartbeat IPC: 1.03877 cumulative IPC: 0.956012 (Simulation time: 12 hr 58 min 33 sec) 
 Total Blocks : 262144 Invalid Blocks : 0
Finished CPU 0 instructions: 200000002 cycles: 209200970 cumulative IPC: 0.956019 (Simulation time: 12 hr 58 min 35 sec) 
Heartbeat CPU 7 instructions: 400000003 cycles: 296336506 heartbeat IPC: 1.02227 cumulative IPC: 0.955039 (Simulation time: 12 hr 59 min 3 sec) 
 Total Blocks : 262144 Invalid Blocks : 0
Finished CPU 7 instructions: 200000001 cycles: 209415474 cumulative IPC: 0.955039 (Simulation time: 12 hr 59 min 3 sec) 

CPU 0 Branch Prediction Accuracy: 96.9945% MPKI: 4.36403 Average ROB Occupancy at Mispredict: 147.783

CPU 1 Branch Prediction Accuracy: 96.9755% MPKI: 4.3629 Average ROB Occupancy at Mispredict: 147.139

CPU 2 Branch Prediction Accuracy: 96.9688% MPKI: 4.36262 Average ROB Occupancy at Mispredict: 146.914

CPU 3 Branch Prediction Accuracy: 96.9849% MPKI: 4.36465 Average ROB Occupancy at Mispredict: 147.507

CPU 4 Branch Prediction Accuracy: 96.9947% MPKI: 4.36402 Average ROB Occupancy at Mispredict: 147.756

CPU 5 Branch Prediction Accuracy: 96.9848% MPKI: 4.36319 Average ROB Occupancy at Mispredict: 147.408

CPU 6 Branch Prediction Accuracy: 96.9917% MPKI: 4.36605 Average ROB Occupancy at Mispredict: 147.624

CPU 7 Branch Prediction Accuracy: 96.9943% MPKI: 4.36544 Average ROB Occupancy at Mispredict: 147.797

ChampSim completed all CPUs

Total Simulation Statistics (not including warmup)

CPU 0 cumulative IPC: 0.955971 instructions: 200195049 cycles: 209415474
ITLB TOTAL     ACCESS: 28578784  HIT: 28574070  MISS:  4714  HIT %: 99.9835  MISS %: 0.0164948  AVERAGE MISS PENALTY: 12.3825
ITLB LOAD      ACCESS: 28578784  HIT: 28574070  MISS:  4714  HIT %: 99.9835  MISS %: 0.0164948  AVERAGE MISS PENALTY: 12.3825
ITLB RFO       ACCESS:     0  HIT:     0  MISS:     0  HIT %:     0  MISS %:     0  AVERAGE MISS PENALTY: 0
ITLB PREFETCH  ACCESS:     0  HIT:     0  MISS:     0  HIT %:     0  MISS %:     0  AVERAGE MISS PENALTY: 0
ITLB WRITEBACK ACCESS:     0  HIT:     0  MISS:     0  HIT %:     0  MISS %:     0  AVERAGE MISS PENALTY: 0

DTLB TOTAL     ACCESS: 42607828  HIT: 42509617  MISS: 98211  HIT %: 99.7695  MISS %: 0.2305  AVERAGE MISS PENALTY: 21.5092
DTLB LOAD      ACCESS: 34194101  HIT: 34113311  MISS: 80790  HIT %: 99.7637  MISS %: 0.236269  AVERAGE MISS PENALTY: 19.7362
DTLB RFO       ACCESS: 8413727  HIT: 8396306  MISS: 17421  HIT %: 99.7929  MISS %: 0.207054  AVERAGE MISS PENALTY: 29.7319
DTLB PREFETCH  ACCESS:     0  HIT:     0  MISS:     0  HIT %:     0  MISS %:     0  AVERAGE MISS PENALTY: 0
DTLB WRITEBACK ACCESS:     0  HIT:     0  MISS:     0  HIT %:     0  MISS %:     0  AVERAGE MISS PENALTY: 0

STLB TOTAL     ACCESS: 102925  HIT: 93335  MISS:  9590  HIT %: 90.6825  MISS %: 9.31746  AVERAGE MISS PENALTY: 100
STLB LOAD      ACCESS: 85504  HIT: 79493  MISS:  6011  HIT %: 92.9699  MISS %: 7.03008  AVERAGE MISS PENALTY: 100
STLB RFO       ACCESS: 17421  HIT: 13842  MISS:  3579  HIT %: 79.4558  MISS %: 20.5442  AVERAGE MISS PENALTY: 100
STLB PREFETCH  ACCESS:     0  HIT:     0  MISS:     0  HIT %:     0  MISS %:     0  AVERAGE MISS PENALTY: 0
STLB WRITEBACK ACCESS:     0  HIT:     0  MISS:     0  HIT %:     0  MISS %:     0  AVERAGE MISS PENALTY: 0

L1D TOTAL     ACCESS: 47941428  HIT: 44693600  MISS: 3247828  HIT %: 93.2254  MISS %: 6.77458  AVERAGE MISS PENALTY: 1.40057e+07
L1D LOAD      ACCESS: 25482955  HIT: 24984090  MISS: 498865  HIT %: 98.0424  MISS %: 1.95764  AVERAGE MISS PENALTY: 9.11385e+07
L1D RFO       ACCESS: 10760817  HIT: 9754007  MISS: 1006810  HIT %: 90.6437  MISS %: 9.35626  AVERAGE MISS PENALTY: 21965.2
L1D PREFETCH  ACCESS: 11697656  HIT: 9955503  MISS: 1742153  HIT %: 85.1068  MISS %: 14.8932  AVERAGE MISS PENALTY: 56.5637
L1D WRITEBACK ACCESS:     0  HIT:     0  MISS:     0  HIT %:     0  MISS %:     0  AVERAGE MISS PENALTY: 0

L1I TOTAL     ACCESS: 41209157  HIT: 41096248  MISS: 112909  HIT %: 99.726  MISS %: 0.27399  AVERAGE MISS PENALTY: 93.9104
L1I LOAD      ACCESS: 41209157  HIT: 41096248  MISS: 112909  HIT %: 99.726  MISS %: 0.27399  AVERAGE MISS PENALTY: 93.9104
L1I RFO       ACCESS:     0  HIT:     0  MISS:     0  HIT %:     0  MISS %:     0  AVERAGE MISS PENALTY: 0
L1I PREFETCH  ACCESS:     0  HIT:     0  MISS:     0  HIT %:     0  MISS %:     0  AVERAGE MISS PENALTY: 0
L1I WRITEBACK ACCESS:     0  HIT:     0  MISS:     0  HIT %:     0  MISS %:     0  AVERAGE MISS PENALTY: 0

L2C TOTAL     ACCESS: 6851882  HIT: 5173175  MISS: 1678707  HIT %: 75.5001  MISS %: 24.4999  AVERAGE MISS PENALTY: 1.81844e+07
L2C LOAD      ACCESS: 561307  HIT: 229226  MISS: 332081  HIT %: 40.8379  MISS %: 59.1621  AVERAGE MISS PENALTY: 9.19174e+07
L2C RFO       ACCESS: 1006644  HIT: 475188  MISS: 531456  HIT %: 47.2052  MISS %: 52.7948  AVERAGE MISS PENALTY: 3849.7
L2C PREFETCH  ACCESS: 3941431  HIT: 3134038  MISS: 807393  HIT %: 79.5152  MISS %: 20.4848  AVERAGE MISS PENALTY: 208.922
L2C WRITEBACK ACCESS: 1342500  HIT: 1334723  MISS:  7777  HIT %: 99.4207  MISS %: 0.579292  AVERAGE MISS PENALTY: 0


LLC0 TOTAL     ACCESS: 299813  HIT: 189293  MISS: 110520  HIT %: 63.137  MISS %: 36.863  AVERAGE MISS PENALTY: 492.828
LLC0 LOAD      ACCESS: 33395  HIT: 21102  MISS: 12293  HIT %: 63.1891  MISS %: 36.8109  AVERAGE MISS PENALTY: 392.215
LLC0 RFO       ACCESS: 66082  HIT: 34302  MISS: 31780  HIT %: 51.9082  MISS %: 48.0918  AVERAGE MISS PENALTY: 849.127
LLC0 PREFETCH  ACCESS: 104769  HIT: 49368  MISS: 55401  HIT %: 47.1208  MISS %: 52.8792  AVERAGE MISS PENALTY: 409.028
LLC0 WRITEBACK ACCESS: 95567  HIT: 84521  MISS: 11046  HIT %: 88.4416  MISS %: 11.5584  AVERAGE MISS PENALTY: 0

LLC1 TOTAL     ACCESS: 304556  HIT: 193213  MISS: 111343  HIT %: 63.4409  MISS %: 36.5591  AVERAGE MISS PENALTY: 494.012
LLC1 LOAD      ACCESS: 27748  HIT: 20545  MISS:  7203  HIT %: 74.0414  MISS %: 25.9586  AVERAGE MISS PENALTY: 368.723
LLC1 RFO       ACCESS: 66304  HIT: 34579  MISS: 31725  HIT %: 52.1522  MISS %: 47.8478  AVERAGE MISS PENALTY: 857.078
LLC1 PREFETCH  ACCESS: 114238  HIT: 52902  MISS: 61336  HIT %: 46.3086  MISS %: 53.6914  AVERAGE MISS PENALTY: 410.168
LLC1 WRITEBACK ACCESS: 96266  HIT: 85187  MISS: 11079  HIT %: 88.4913  MISS %: 11.5087  AVERAGE MISS PENALTY: 0

LLC2 TOTAL     ACCESS: 305664  HIT: 194176  MISS: 111488  HIT %: 63.526  MISS %: 36.474  AVERAGE MISS PENALTY: 509.161
LLC2 LOAD      ACCESS: 24385  HIT: 18413  MISS:  5972  HIT %: 75.5095  MISS %: 24.4905  AVERAGE MISS PENALTY: 389.366
LLC2 RFO       ACCESS: 66020  HIT: 34352  MISS: 31668  HIT %: 52.0327  MISS %: 47.9673  AVERAGE MISS PENALTY: 884.244
LLC2 PREFETCH  ACCESS: 119104  HIT: 56243  MISS: 62861  HIT %: 47.2218  MISS %: 52.7782  AVERAGE MISS PENALTY: 420.576
LLC2 WRITEBACK ACCESS: 96155  HIT: 85168  MISS: 10987  HIT %: 88.5737  MISS %: 11.4263  AVERAGE MISS PENALTY: 0

LLC3 TOTAL     ACCESS: 307261  HIT: 195795  MISS: 111466  HIT %: 63.7227  MISS %: 36.2773  AVERAGE MISS PENALTY: 511.814
LLC3 LOAD      ACCESS: 23224  HIT: 18094  MISS:  5130  HIT %: 77.9108  MISS %: 22.0892  AVERAGE MISS PENALTY: 377.121
LLC3 RFO       ACCESS: 66377  HIT: 34697  MISS: 31680  HIT %: 52.2726  MISS %: 47.7274  AVERAGE MISS PENALTY: 890.381
LLC3 PREFETCH  ACCESS: 121356  HIT: 57615  MISS: 63741  HIT %: 47.476  MISS %: 52.524  AVERAGE MISS PENALTY: 422.146
LLC3 WRITEBACK ACCESS: 96304  HIT: 85389  MISS: 10915  HIT %: 88.6661  MISS %: 11.3339  AVERAGE MISS PENALTY: 0

LLC4 TOTAL     ACCESS: 304383  HIT: 192973  MISS: 111410  HIT %: 63.3981  MISS %: 36.6019  AVERAGE MISS PENALTY: 500.04
LLC4 LOAD      ACCESS: 22492  HIT: 17059  MISS:  5433  HIT %: 75.8447  MISS %: 24.1553  AVERAGE MISS PENALTY: 382.92
LLC4 RFO       ACCESS: 66064  HIT: 34232  MISS: 31832  HIT %: 51.8164  MISS %: 48.1836  AVERAGE MISS PENALTY: 869.343
LLC4 PREFETCH  ACCESS: 119718  HIT: 56566  MISS: 63152  HIT %: 47.2494  MISS %: 52.7506  AVERAGE MISS PENALTY: 411.01
LLC4 WRITEBACK ACCESS: 96109  HIT: 85116  MISS: 10993  HIT %: 88.5619  MISS %: 11.4381  AVERAGE MISS PENALTY: 0

LLC5 TOTAL     ACCESS: 307646  HIT: 195785  MISS: 111861  HIT %: 63.6397  MISS %: 36.3603  AVERAGE MISS PENALTY: 496.852
LLC5 LOAD      ACCESS: 23148  HIT: 18030  MISS:  5118  HIT %: 77.8901  MISS %: 22.1099  AVERAGE MISS PENALTY: 371.638
LLC5 RFO       ACCESS: 66659  HIT: 34732  MISS: 31927  HIT %: 52.104  MISS %: 47.896  AVERAGE MISS PENALTY: 866.248
LLC5 PREFETCH  ACCESS: 120702  HIT: 56878  MISS: 63824  HIT %: 47.1227  MISS %: 52.8773  AVERAGE MISS PENALTY: 407.677
LLC5 WRITEBACK ACCESS: 97137  HIT: 86145  MISS: 10992  HIT %: 88.684  MISS %: 11.316  AVERAGE MISS PENALTY: 0

LLC6 TOTAL     ACCESS: 305396  HIT: 193562  MISS: 111834  HIT %: 63.3807  MISS %: 36.6193  AVERAGE MISS PENALTY: 515.684
LLC6 LOAD      ACCESS: 22265  HIT: 16806  MISS:  5459  HIT %: 75.4817  MISS %: 24.5183  AVERAGE MISS PENALTY: 384.455
LLC6 RFO       ACCESS: 66719  HIT: 34668  MISS: 32051  HIT %: 51.9612  MISS %: 48.0388  AVERAGE MISS PENALTY: 904.847
LLC6 PREFETCH  ACCESS: 119959  HIT: 56578  MISS: 63381  HIT %: 47.1644  MISS %: 52.8356  AVERAGE MISS PENALTY: 419.226
LLC6 WRITEBACK ACCESS: 96453  HIT: 85510  MISS: 10943  HIT %: 88.6546  MISS %: 11.3454  AVERAGE MISS PENALTY: 0

LLC7 TOTAL     ACCESS: 307591  HIT: 196005  MISS: 111586  HIT %: 63.7226  MISS %: 36.2774  AVERAGE MISS PENALTY: 511.822
LLC7 LOAD      ACCESS: 22004  HIT: 17076  MISS:  4928  HIT %: 77.6041  MISS %: 22.3959  AVERAGE MISS PENALTY: 382.12
LLC7 RFO       ACCESS: 67223  HIT: 35401  MISS: 31822  HIT %: 52.662  MISS %: 47.338  AVERAGE MISS PENALTY: 897.017
LLC7 PREFETCH  ACCESS: 120965  HIT: 57244  MISS: 63721  HIT %: 47.3228  MISS %: 52.6772  AVERAGE MISS PENALTY: 418.767
LLC7 WRITEBACK ACCESS: 97399  HIT: 86284  MISS: 11115  HIT %: 88.5882  MISS %: 11.4118  AVERAGE MISS PENALTY: 0

Total Rob stall cycles : 	155693062
Total Load Rob Stall cycles : 	52056640
Average Rob Stall cycles : 	 4
Average Load Rob Stall cycles : 	 17

CPU 1 cumulative IPC: 0.979241 instructions: 205068299 cycles: 209415474
ITLB TOTAL     ACCESS: 29264162  HIT: 29259207  MISS:  4955  HIT %: 99.9831  MISS %: 0.016932  AVERAGE MISS PENALTY: 12.218
ITLB LOAD      ACCESS: 29264162  HIT: 29259207  MISS:  4955  HIT %: 99.9831  MISS %: 0.016932  AVERAGE MISS PENALTY: 12.218
ITLB RFO       ACCESS:     0  HIT:     0  MISS:     0  HIT %:     0  MISS %:     0  AVERAGE MISS PENALTY: 0
ITLB PREFETCH  ACCESS:     0  HIT:     0  MISS:     0  HIT %:     0  MISS %:     0  AVERAGE MISS PENALTY: 0
ITLB WRITEBACK ACCESS:     0  HIT:     0  MISS:     0  HIT %:     0  MISS %:     0  AVERAGE MISS PENALTY: 0

DTLB TOTAL     ACCESS: 43724777  HIT: 43622648  MISS: 102129  HIT %: 99.7664  MISS %: 0.233572  AVERAGE MISS PENALTY: 21.3391
DTLB LOAD      ACCESS: 35097331  HIT: 35013145  MISS: 84186  HIT %: 99.7601  MISS %: 0.239864  AVERAGE MISS PENALTY: 19.6608
DTLB RFO       ACCESS: 8627446  HIT: 8609503  MISS: 17943  HIT %: 99.792  MISS %: 0.207976  AVERAGE MISS PENALTY: 29.2132
DTLB PREFETCH  ACCESS:     0  HIT:     0  MISS:     0  HIT %:     0  MISS %:     0  AVERAGE MISS PENALTY: 0
DTLB WRITEBACK ACCESS:     0  HIT:     0  MISS:     0  HIT %:     0  MISS %:     0  AVERAGE MISS PENALTY: 0

STLB TOTAL     ACCESS: 107084  HIT: 97251  MISS:  9833  HIT %: 90.8175  MISS %: 9.18251  AVERAGE MISS PENALTY: 100
STLB LOAD      ACCESS: 89141  HIT: 82903  MISS:  6238  HIT %: 93.0021  MISS %: 6.9979  AVERAGE MISS PENALTY: 100
STLB RFO       ACCESS: 17943  HIT: 14348  MISS:  3595  HIT %: 79.9643  MISS %: 20.0357  AVERAGE MISS PENALTY: 100
STLB PREFETCH  ACCESS:     0  HIT:     0  MISS:     0  HIT %:     0  MISS %:     0  AVERAGE MISS PENALTY: 0
STLB WRITEBACK ACCESS:     0  HIT:     0  MISS:     0  HIT %:     0  MISS %:     0  AVERAGE MISS PENALTY: 0

L1D TOTAL     ACCESS: 49372417  HIT: 46012401  MISS: 3360016  HIT %: 93.1945  MISS %: 6.80545  AVERAGE MISS PENALTY: 1.39369e+07
L1D LOAD      ACCESS: 26226498  HIT: 25716899  MISS: 509599  HIT %: 98.0569  MISS %: 1.94307  AVERAGE MISS PENALTY: 9.18421e+07
L1D RFO       ACCESS: 11098441  HIT: 10064957  MISS: 1033484  HIT %: 90.688  MISS %: 9.31197  AVERAGE MISS PENALTY: 24779.5
L1D PREFETCH  ACCESS: 12047478  HIT: 10230545  MISS: 1816933  HIT %: 84.9186  MISS %: 15.0814  AVERAGE MISS PENALTY: 54.118
L1D WRITEBACK ACCESS:     0  HIT:     0  MISS:     0  HIT %:     0  MISS %:     0  AVERAGE MISS PENALTY: 0

L1I TOTAL     ACCESS: 42171764  HIT: 42053189  MISS: 118575  HIT %: 99.7188  MISS %: 0.281172  AVERAGE MISS PENALTY: 84.8991
L1I LOAD      ACCESS: 42171764  HIT: 42053189  MISS: 118575  HIT %: 99.7188  MISS %: 0.281172  AVERAGE MISS PENALTY: 84.8991
L1I RFO       ACCESS:     0  HIT:     0  MISS:     0  HIT %:     0  MISS %:     0  AVERAGE MISS PENALTY: 0
L1I PREFETCH  ACCESS:     0  HIT:     0  MISS:     0  HIT %:     0  MISS %:     0  AVERAGE MISS PENALTY: 0
L1I WRITEBACK ACCESS:     0  HIT:     0  MISS:     0  HIT %:     0  MISS %:     0  AVERAGE MISS PENALTY: 0

L2C TOTAL     ACCESS: 7103633  HIT: 5446905  MISS: 1656728  HIT %: 76.6777  MISS %: 23.3223  AVERAGE MISS PENALTY: 1.84935e+07
L2C LOAD      ACCESS: 574923  HIT: 241589  MISS: 333334  HIT %: 42.0211  MISS %: 57.9789  AVERAGE MISS PENALTY: 9.1903e+07
L2C RFO       ACCESS: 1033299  HIT: 535515  MISS: 497784  HIT %: 51.8258  MISS %: 48.1742  AVERAGE MISS PENALTY: 8431.92
L2C PREFETCH  ACCESS: 4112753  HIT: 3295457  MISS: 817296  HIT %: 80.1278  MISS %: 19.8722  AVERAGE MISS PENALTY: 203.859
L2C WRITEBACK ACCESS: 1382658  HIT: 1374344  MISS:  8314  HIT %: 99.3987  MISS %: 0.601306  AVERAGE MISS PENALTY: 0


LLC0 TOTAL     ACCESS: 293533  HIT: 180224  MISS: 113309  HIT %: 61.3982  MISS %: 38.6018  AVERAGE MISS PENALTY: 416.332
LLC0 LOAD      ACCESS: 34108  HIT: 21364  MISS: 12744  HIT %: 62.6363  MISS %: 37.3637  AVERAGE MISS PENALTY: 367.065
LLC0 RFO       ACCESS: 61793  HIT: 29711  MISS: 32082  HIT %: 48.0815  MISS %: 51.9185  AVERAGE MISS PENALTY: 636.172
LLC0 PREFETCH  ACCESS: 105866  HIT: 48741  MISS: 57125  HIT %: 46.0403  MISS %: 53.9597  AVERAGE MISS PENALTY: 386.637
LLC0 WRITEBACK ACCESS: 91766  HIT: 80408  MISS: 11358  HIT %: 87.6229  MISS %: 12.3771  AVERAGE MISS PENALTY: 0

LLC1 TOTAL     ACCESS: 298148  HIT: 183855  MISS: 114293  HIT %: 61.6657  MISS %: 38.3343  AVERAGE MISS PENALTY: 413.476
LLC1 LOAD      ACCESS: 27684  HIT: 20149  MISS:  7535  HIT %: 72.7821  MISS %: 27.2179  AVERAGE MISS PENALTY: 343.963
LLC1 RFO       ACCESS: 62250  HIT: 30160  MISS: 32090  HIT %: 48.4498  MISS %: 51.5502  AVERAGE MISS PENALTY: 630.922
LLC1 PREFETCH  ACCESS: 115595  HIT: 52288  MISS: 63307  HIT %: 45.2338  MISS %: 54.7662  AVERAGE MISS PENALTY: 385.729
LLC1 WRITEBACK ACCESS: 92619  HIT: 81258  MISS: 11361  HIT %: 87.7336  MISS %: 12.2664  AVERAGE MISS PENALTY: 0

LLC2 TOTAL     ACCESS: 300113  HIT: 185785  MISS: 114328  HIT %: 61.905  MISS %: 38.095  AVERAGE MISS PENALTY: 432.667
LLC2 LOAD      ACCESS: 24410  HIT: 18201  MISS:  6209  HIT %: 74.5637  MISS %: 25.4363  AVERAGE MISS PENALTY: 359.176
LLC2 RFO       ACCESS: 62173  HIT: 30300  MISS: 31873  HIT %: 48.735  MISS %: 51.265  AVERAGE MISS PENALTY: 667.303
LLC2 PREFETCH  ACCESS: 120729  HIT: 55902  MISS: 64827  HIT %: 46.3037  MISS %: 53.6963  AVERAGE MISS PENALTY: 400.557
LLC2 WRITEBACK ACCESS: 92801  HIT: 81382  MISS: 11419  HIT %: 87.6952  MISS %: 12.3048  AVERAGE MISS PENALTY: 0

LLC3 TOTAL     ACCESS: 300882  HIT: 186457  MISS: 114425  HIT %: 61.9701  MISS %: 38.0299  AVERAGE MISS PENALTY: 429.089
LLC3 LOAD      ACCESS: 22635  HIT: 17437  MISS:  5198  HIT %: 77.0356  MISS %: 22.9644  AVERAGE MISS PENALTY: 339.553
LLC3 RFO       ACCESS: 62247  HIT: 30244  MISS: 32003  HIT %: 48.5871  MISS %: 51.4129  AVERAGE MISS PENALTY: 656.352
LLC3 PREFETCH  ACCESS: 123188  HIT: 57216  MISS: 65972  HIT %: 46.4461  MISS %: 53.5539  AVERAGE MISS PENALTY: 399.083
LLC3 WRITEBACK ACCESS: 92812  HIT: 81560  MISS: 11252  HIT %: 87.8766  MISS %: 12.1234  AVERAGE MISS PENALTY: 0

LLC4 TOTAL     ACCESS: 297055  HIT: 182797  MISS: 114258  HIT %: 61.5364  MISS %: 38.4636  AVERAGE MISS PENALTY: 422.929
[...]
 TIMELY PREFETCHES:      15462 LATE PREFETCHES: 0 DROPPED PREFETCHES: 0
LLC1 AVERAGE MISS LATENCY: 486.829 cycles
LLC2 TOTAL     ACCESS: 333386  HIT: 221663  MISS: 111723  HIT %: 66.4884  MISS %: 33.5116  AVERAGE MISS PENALTY: 503.332
LLC2 LOAD      ACCESS: 23066  HIT: 17147  MISS:  5919  HIT %: 74.3389  MISS %: 25.6611  AVERAGE MISS PENALTY: 386.391
LLC2 RFO       ACCESS: 76707  HIT: 44589  MISS: 32118  HIT %: 58.129  MISS %: 41.871  AVERAGE MISS PENALTY: 869.25
LLC2 PREFETCH  ACCESS: 126817  HIT: 64313  MISS: 62504  HIT %: 50.7132  MISS %: 49.2868  AVERAGE MISS PENALTY: 416.424
LLC2 WRITEBACK ACCESS: 106796  HIT: 95614  MISS: 11182  HIT %: 89.5296  MISS %: 10.4704  AVERAGE MISS PENALTY: 0
LLC2 PREFETCH  REQUESTED:     0  ISSUED:     0  USEFUL: 15388  USELESS: 495924
 USEFUL LOAD PREFETCHES:      15388 PREFETCH ISSUED TO LOWER LEVEL:     629957  ACCURACY: 2.44271
 TIMELY PREFETCHES:      15388 LATE PREFETCHES: 0 DROPPED PREFETCHES: 0
LLC2 AVERAGE MISS LATENCY: 503.332 cycles
LLC3 TOTAL     ACCESS: 334600  HIT: 222908  MISS: 111692  HIT %: 66.6192  MISS %: 33.3808  AVERAGE MISS PENALTY: 504.927
LLC3 LOAD      ACCESS: 21825  HIT: 16815  MISS:  5010  HIT %: 77.0447  MISS %: 22.9553  AVERAGE MISS PENALTY: 378.202
LLC3 RFO       ACCESS: 76672  HIT: 44525  MISS: 32147  HIT %: 58.072  MISS %: 41.928  AVERAGE MISS PENALTY: 871.915
LLC3 PREFETCH  ACCESS: 129193  HIT: 65625  MISS: 63568  HIT %: 50.7961  MISS %: 49.2039  AVERAGE MISS PENALTY: 416.437
LLC3 WRITEBACK ACCESS: 106910  HIT: 95943  MISS: 10967  HIT %: 89.7418  MISS %: 10.2582  AVERAGE MISS PENALTY: 0
LLC3 PREFETCH  REQUESTED:     0  ISSUED:     0  USEFUL: 14162  USELESS: 505368
 USEFUL LOAD PREFETCHES:      14162 PREFETCH ISSUED TO LOWER LEVEL:     599603  ACCURACY: 2.3619
 TIMELY PREFETCHES:      14162 LATE PREFETCHES: 0 DROPPED PREFETCHES: 0
LLC3 AVERAGE MISS LATENCY: 504.927 cycles
LLC4 TOTAL     ACCESS: 332844  HIT: 221295  MISS: 111549  HIT %: 66.4861  MISS %: 33.5139  AVERAGE MISS PENALTY: 491.272
LLC4 LOAD      ACCESS: 21369  HIT: 16208  MISS:  5161  HIT %: 75.8482  MISS %: 24.1518  AVERAGE MISS PENALTY: 381.409
LLC4 RFO       ACCESS: 76533  HIT: 44147  MISS: 32386  HIT %: 57.6836  MISS %: 42.3164  AVERAGE MISS PENALTY: 849.892
LLC4 PREFETCH  ACCESS: 128208  HIT: 65239  MISS: 62969  HIT %: 50.8853  MISS %: 49.1147  AVERAGE MISS PENALTY: 401.91
LLC4 WRITEBACK ACCESS: 106734  HIT: 95701  MISS: 11033  HIT %: 89.6631  MISS %: 10.3369  AVERAGE MISS PENALTY: 0
LLC4 PREFETCH  REQUESTED:     0  ISSUED:     0  USEFUL: 16414  USELESS: 497319
 USEFUL LOAD PREFETCHES:      16414 PREFETCH ISSUED TO LOWER LEVEL:     671148  ACCURACY: 2.44566
 TIMELY PREFETCHES:      16414 LATE PREFETCHES: 0 DROPPED PREFETCHES: 0
LLC4 AVERAGE MISS LATENCY: 491.272 cycles
LLC5 TOTAL     ACCESS: 336040  HIT: 223492  MISS: 112548  HIT %: 66.5076  MISS %: 33.4924  AVERAGE MISS PENALTY: 488.387
LLC5 LOAD      ACCESS: 22380  HIT: 17254  MISS:  5126  HIT %: 77.0956  MISS %: 22.9044  AVERAGE MISS PENALTY: 367.128
LLC5 RFO       ACCESS: 77064  HIT: 44663  MISS: 32401  HIT %: 57.9557  MISS %: 42.0443  AVERAGE MISS PENALTY: 848.724
LLC5 PREFETCH  ACCESS: 128988  HIT: 65372  MISS: 63616  HIT %: 50.6807  MISS %: 49.3193  AVERAGE MISS PENALTY: 402.188
LLC5 WRITEBACK ACCESS: 107608  HIT: 96203  MISS: 11405  HIT %: 89.4013  MISS %: 10.5987  AVERAGE MISS PENALTY: 0
LLC5 PREFETCH  REQUESTED:     0  ISSUED:     0  USEFUL: 14600  USELESS: 504052
 USEFUL LOAD PREFETCHES:      14600 PREFETCH ISSUED TO LOWER LEVEL:     578267  ACCURACY: 2.52479
 TIMELY PREFETCHES:      14600 LATE PREFETCHES: 0 DROPPED PREFETCHES: 0
LLC5 AVERAGE MISS LATENCY: 488.387 cycles
LLC6 TOTAL     ACCESS: 332415  HIT: 220173  MISS: 112242  HIT %: 66.2344  MISS %: 33.7656  AVERAGE MISS PENALTY: 504.333
LLC6 LOAD      ACCESS: 20793  HIT: 15466  MISS:  5327  HIT %: 74.3808  MISS %: 25.6192  AVERAGE MISS PENALTY: 383.098
LLC6 RFO       ACCESS: 76884  HIT: 44552  MISS: 32332  HIT %: 57.947  MISS %: 42.053  AVERAGE MISS PENALTY: 883.23
LLC6 PREFETCH  ACCESS: 128223  HIT: 64878  MISS: 63345  HIT %: 50.5978  MISS %: 49.4022  AVERAGE MISS PENALTY: 410.609
LLC6 WRITEBACK ACCESS: 106515  HIT: 95277  MISS: 11238  HIT %: 89.4494  MISS %: 10.5506  AVERAGE MISS PENALTY: 0
LLC6 PREFETCH  REQUESTED:     0  ISSUED:     0  USEFUL: 14607  USELESS: 501261
 USEFUL LOAD PREFETCHES:      14607 PREFETCH ISSUED TO LOWER LEVEL:    1060677  ACCURACY: 1.37714
 TIMELY PREFETCHES:      14607 LATE PREFETCHES: 0 DROPPED PREFETCHES: 0
LLC6 AVERAGE MISS LATENCY: 504.333 cycles
LLC7 TOTAL     ACCESS: 333690  HIT: 221407  MISS: 112283  HIT %: 66.3511  MISS %: 33.6489  AVERAGE MISS PENALTY: 505.143
LLC7 LOAD      ACCESS: 20660  HIT: 15984  MISS:  4676  HIT %: 77.3669  MISS %: 22.6331  AVERAGE MISS PENALTY: 368.141
LLC7 RFO       ACCESS: 76878  HIT: 44698  MISS: 32180  HIT %: 58.1415  MISS %: 41.8585  AVERAGE MISS PENALTY: 885.872
LLC7 PREFETCH  ACCESS: 129267  HIT: 65107  MISS: 64160  HIT %: 50.3663  MISS %: 49.6337  AVERAGE MISS PENALTY: 412.876
LLC7 WRITEBACK ACCESS: 106885  HIT: 95618  MISS: 11267  HIT %: 89.4588  MISS %: 10.5412  AVERAGE MISS PENALTY: 0
LLC7 PREFETCH  REQUESTED:     0  ISSUED:     0  USEFUL: 14108  USELESS: 506045
 USEFUL LOAD PREFETCHES:      14108 PREFETCH ISSUED TO LOWER LEVEL:     625915  ACCURACY: 2.25398
 TIMELY PREFETCHES:      14108 LATE PREFETCHES: 0 DROPPED PREFETCHES: 0
LLC7 AVERAGE MISS LATENCY: 505.143 cycles
ROI Average ROB Stall Cycles:	4.85044
ROI Total ROB Stalls Cycles:	155117582
ROI TOTAL ROB counter      :	31980084
ROI Average Load ROB Stall Cycles:	17.6131
ROI Total Load ROB Stalls Cycle  :	51647508
ROI Total Load ROB stalls Counter:	2932339
Major fault: 0 Minor fault: 13497

CPU 7 cumulative IPC: 0.955039 instructions: 200000001 cycles: 209415474
ITLB TOTAL     ACCESS: 28547776  HIT: 28543069  MISS:  4707  HIT %: 99.9835  MISS %: 0.0164881  AVERAGE MISS PENALTY: 12.3875
ITLB LOAD      ACCESS: 28547776  HIT: 28543069  MISS:  4707  HIT %: 99.9835  MISS %: 0.0164881  AVERAGE MISS PENALTY: 12.3875
ITLB RFO       ACCESS:     0  HIT:     0  MISS:     0  HIT %:     0  MISS %:     0  AVERAGE MISS PENALTY: 0
ITLB PREFETCH  ACCESS:     0  HIT:     0  MISS:     0  HIT %:     0  MISS %:     0  AVERAGE MISS PENALTY: 0
ITLB WRITEBACK ACCESS:     0  HIT:     0  MISS:     0  HIT %:     0  MISS %:     0  AVERAGE MISS PENALTY: 0
ITLB PREFETCH  REQUESTED:     0  ISSUED:     0  USEFUL:     0  USELESS:     0
 USEFUL LOAD PREFETCHES:          0 PREFETCH ISSUED TO LOWER LEVEL:          0  ACCURACY: -nan
 TIMELY PREFETCHES:          0 LATE PREFETCHES: 0 DROPPED PREFETCHES: 0
ITLB AVERAGE MISS LATENCY: 12.3875 cycles
DTLB TOTAL     ACCESS: 42555390  HIT: 42457298  MISS: 98092  HIT %: 99.7695  MISS %: 0.230504  AVERAGE MISS PENALTY: 21.505
DTLB LOAD      ACCESS: 34155436  HIT: 34074793  MISS: 80643  HIT %: 99.7639  MISS %: 0.236106  AVERAGE MISS PENALTY: 19.7286
DTLB RFO       ACCESS: 8399954  HIT: 8382505  MISS: 17449  HIT %: 99.7923  MISS %: 0.207727  AVERAGE MISS PENALTY: 29.7151
DTLB PREFETCH  ACCESS:     0  HIT:     0  MISS:     0  HIT %:     0  MISS %:     0  AVERAGE MISS PENALTY: 0
DTLB WRITEBACK ACCESS:     0  HIT:     0  MISS:     0  HIT %:     0  MISS %:     0  AVERAGE MISS PENALTY: 0
DTLB PREFETCH  REQUESTED:     0  ISSUED:     0  USEFUL:     0  USELESS:     0
 USEFUL LOAD PREFETCHES:          0 PREFETCH ISSUED TO LOWER LEVEL:          0  ACCURACY: -nan
 TIMELY PREFETCHES:          0 LATE PREFETCHES: 0 DROPPED PREFETCHES: 0
DTLB AVERAGE MISS LATENCY: 21.505 cycles
STLB TOTAL     ACCESS: 102799  HIT: 93216  MISS:  9583  HIT %: 90.6779  MISS %: 9.32208  AVERAGE MISS PENALTY: 100
STLB LOAD      ACCESS: 85350  HIT: 79345  MISS:  6005  HIT %: 92.9643  MISS %: 7.03574  AVERAGE MISS PENALTY: 100
STLB RFO       ACCESS: 17449  HIT: 13871  MISS:  3578  HIT %: 79.4945  MISS %: 20.5055  AVERAGE MISS PENALTY: 100
STLB PREFETCH  ACCESS:     0  HIT:     0  MISS:     0  HIT %:     0  MISS %:     0  AVERAGE MISS PENALTY: 0
STLB WRITEBACK ACCESS:     0  HIT:     0  MISS:     0  HIT %:     0  MISS %:     0  AVERAGE MISS PENALTY: 0
STLB PREFETCH  REQUESTED:     0  ISSUED:     0  USEFUL:     0  USELESS:     0
 USEFUL LOAD PREFETCHES:          0 PREFETCH ISSUED TO LOWER LEVEL:          0  ACCURACY: -nan
 TIMELY PREFETCHES:          0 LATE PREFETCHES: 0 DROPPED PREFETCHES: 0
STLB AVERAGE MISS LATENCY: 100 cycles
L1D TOTAL     ACCESS: 47716780  HIT: 44473484  MISS: 3243296  HIT %: 93.203  MISS %: 6.79697  AVERAGE MISS PENALTY: 1.44135e+07
L1D LOAD      ACCESS: 25440057  HIT: 24933448  MISS: 506609  HIT %: 98.0086  MISS %: 1.99138  AVERAGE MISS PENALTY: 9.21937e+07
L1D RFO       ACCESS: 10620338  HIT: 9614119  MISS: 1006219  HIT %: 90.5255  MISS %: 9.47445  AVERAGE MISS PENALTY: 40823.2
L1D PREFETCH  ACCESS: 11656385  HIT: 9925917  MISS: 1730468  HIT %: 85.1543  MISS %: 14.8457  AVERAGE MISS PENALTY: 58.0001
L1D WRITEBACK ACCESS:     0  HIT:     0  MISS:     0  HIT %:     0  MISS %:     0  AVERAGE MISS PENALTY: 0
L1D PREFETCH  REQUESTED: 13363559  ISSUED: 12817393  USEFUL: 1520539  USELESS: 209943
 USEFUL LOAD PREFETCHES:    1520539 PREFETCH ISSUED TO LOWER LEVEL:    9850208  ACCURACY: 15.4366
 TIMELY PREFETCHES:    1520539 LATE PREFETCHES: 304050 DROPPED PREFETCHES: 546166
L1D AVERAGE MISS LATENCY: 12716.6 cycles
L1I TOTAL     ACCESS: 41181403  HIT: 41068757  MISS: 112646  HIT %: 99.7265  MISS %: 0.273536  AVERAGE MISS PENALTY: 88.9443
L1I LOAD      ACCESS: 41181403  HIT: 41068757  MISS: 112646  HIT %: 99.7265  MISS %: 0.273536  AVERAGE MISS PENALTY: 88.9443
L1I RFO       ACCESS:     0  HIT:     0  MISS:     0  HIT %:     0  MISS %:     0  AVERAGE MISS PENALTY: 0
L1I PREFETCH  ACCESS:     0  HIT:     0  MISS:     0  HIT %:     0  MISS %:     0  AVERAGE MISS PENALTY: 0
L1I WRITEBACK ACCESS:     0  HIT:     0  MISS:     0  HIT %:     0  MISS %:     0  AVERAGE MISS PENALTY: 0
L1I PREFETCH  REQUESTED:     0  ISSUED:     0  USEFUL:     0  USELESS:     0
 USEFUL LOAD PREFETCHES:          0 PREFETCH ISSUED TO LOWER LEVEL:          0  ACCURACY: -nan
 TIMELY PREFETCHES:          0 LATE PREFETCHES: 0 DROPPED PREFETCHES: 0
L1I AVERAGE MISS LATENCY: 88.9443 cycles
L2C TOTAL     ACCESS: 6818474  HIT: 4789872  MISS: 2028602  HIT %: 70.2484  MISS %: 29.7516  AVERAGE MISS PENALTY: 1.53404e+07
L2C LOAD      ACCESS: 564630  HIT: 223280  MISS: 341350  HIT %: 39.5445  MISS %: 60.4555  AVERAGE MISS PENALTY: 9.11509e+07
L2C RFO       ACCESS: 1005938  HIT: 342904  MISS: 663034  HIT %: 34.088  MISS %: 65.912  AVERAGE MISS PENALTY: 7722.48
L2C PREFETCH  ACCESS: 3906348  HIT: 2958390  MISS: 947958  HIT %: 75.7329  MISS %: 24.2671  AVERAGE MISS PENALTY: 183.962
L2C WRITEBACK ACCESS: 1341558  HIT: 1265298  MISS: 76260  HIT %: 94.3156  MISS %: 5.68444  AVERAGE MISS PENALTY: 0
L2C PREFETCH  REQUESTED: 3489914  ISSUED: 3486281  USEFUL: 88318  USELESS: 860759
 USEFUL LOAD PREFETCHES:      88318 PREFETCH ISSUED TO LOWER LEVEL:    1582023  ACCURACY: 5.5826
 TIMELY PREFETCHES:      88318 LATE PREFETCHES: 261401 DROPPED PREFETCHES: 3633
L2C AVERAGE MISS LATENCY: 242.322 cycles
LLC0 TOTAL     ACCESS: 354898  HIT: 244281  MISS: 110617  HIT %: 68.8313  MISS %: 31.1687  AVERAGE MISS PENALTY: 490.929
LLC0 LOAD      ACCESS: 36436  HIT: 24356  MISS: 12080  HIT %: 66.846  MISS %: 33.154  AVERAGE MISS PENALTY: 394.706
LLC0 RFO       ACCESS: 82603  HIT: 50145  MISS: 32458  HIT %: 60.706  MISS %: 39.294  AVERAGE MISS PENALTY: 830.691
LLC0 PREFETCH  ACCESS: 120382  HIT: 65119  MISS: 55263  HIT %: 54.0936  MISS %: 45.9064  AVERAGE MISS PENALTY: 408.491
LLC0 WRITEBACK ACCESS: 115477  HIT: 104661  MISS: 10816  HIT %: 90.6336  MISS %: 9.36637  AVERAGE MISS PENALTY: 0
LLC0 PREFETCH  REQUESTED:     0  ISSUED:     0  USEFUL: 14514  USELESS: 435976
 USEFUL LOAD PREFETCHES:      14514 PREFETCH ISSUED TO LOWER LEVEL:     545899  ACCURACY: 2.65873
 TIMELY PREFETCHES:      14514 LATE PREFETCHES: 0 DROPPED PREFETCHES: 0
LLC0 AVERAGE MISS LATENCY: 490.929 cycles
Deadblocks : 85954 Deadblock percentage : 711.54

LLC1 TOTAL     ACCESS: 361530  HIT: 249721  MISS: 111809  HIT %: 69.0734  MISS %: 30.9266  AVERAGE MISS PENALTY: 492.486
LLC1 LOAD      ACCESS: 29155  HIT: 21886  MISS:  7269  HIT %: 75.0677  MISS %: 24.9323  AVERAGE MISS PENALTY: 377.244
LLC1 RFO       ACCESS: 83417  HIT: 50844  MISS: 32573  HIT %: 60.9516  MISS %: 39.0484  AVERAGE MISS PENALTY: 835.868
LLC1 PREFETCH  ACCESS: 131694  HIT: 70642  MISS: 61052  HIT %: 53.641  MISS %: 46.359  AVERAGE MISS PENALTY: 411.05
LLC1 WRITEBACK ACCESS: 117264  HIT: 106349  MISS: 10915  HIT %: 90.6919  MISS %: 9.30806  AVERAGE MISS PENALTY: 0
LLC1 PREFETCH  REQUESTED:     0  ISSUED:     0  USEFUL: 15462  USELESS: 483280
 USEFUL LOAD PREFETCHES:      15462 PREFETCH ISSUED TO LOWER LEVEL:     553465  ACCURACY: 2.79367
 TIMELY PREFETCHES:      15462 LATE PREFETCHES: 0 DROPPED PREFETCHES: 0
LLC1 AVERAGE MISS LATENCY: 492.486 cycles
LLC2 TOTAL     ACCESS: 360899  HIT: 248774  MISS: 112125  HIT %: 68.9318  MISS %: 31.0682  AVERAGE MISS PENALTY: 508.238
LLC2 LOAD      ACCESS: 24947  HIT: 19136  MISS:  5811  HIT %: 76.7066  MISS %: 23.2934  AVERAGE MISS PENALTY: 396.458
LLC2 RFO       ACCESS: 82665  HIT: 50125  MISS: 32540  HIT %: 60.6363  MISS %: 39.3637  AVERAGE MISS PENALTY: 863.609
LLC2 PREFETCH  ACCESS: 136475  HIT: 73613  MISS: 62862  HIT %: 53.9388  MISS %: 46.0612  AVERAGE MISS PENALTY: 422.839
LLC2 WRITEBACK ACCESS: 116812  HIT: 105900  MISS: 10912  HIT %: 90.6585  MISS %: 9.34151  AVERAGE MISS PENALTY: 0
LLC2 PREFETCH  REQUESTED:     0  ISSUED:     0  USEFUL: 15388  USELESS: 495924
 USEFUL LOAD PREFETCHES:      15388 PREFETCH ISSUED TO LOWER LEVEL:     629957  ACCURACY: 2.44271
 TIMELY PREFETCHES:      15388 LATE PREFETCHES: 0 DROPPED PREFETCHES: 0
LLC2 AVERAGE MISS LATENCY: 508.238 cycles
LLC3 TOTAL     ACCESS: 363382  HIT: 251067  MISS: 112315  HIT %: 69.0918  MISS %: 30.9082  AVERAGE MISS PENALTY: 509.185
LLC3 LOAD      ACCESS: 23500  HIT: 18535  MISS:  4965  HIT %: 78.8723  MISS %: 21.1277  AVERAGE MISS PENALTY: 387.378
LLC3 RFO       ACCESS: 83025  HIT: 50470  MISS: 32555  HIT %: 60.7889  MISS %: 39.2111  AVERAGE MISS PENALTY: 869.879
LLC3 PREFETCH  ACCESS: 139674  HIT: 75855  MISS: 63819  HIT %: 54.3086  MISS %: 45.6914  AVERAGE MISS PENALTY: 422.24
LLC3 WRITEBACK ACCESS: 117183  HIT: 106207  MISS: 10976  HIT %: 90.6335  MISS %: 9.36655  AVERAGE MISS PENALTY: 0
LLC3 PREFETCH  REQUESTED:     0  ISSUED:     0  USEFUL: 14162  USELESS: 505368
 USEFUL LOAD PREFETCHES:      14162 PREFETCH ISSUED TO LOWER LEVEL:     599603  ACCURACY: 2.3619
 TIMELY PREFETCHES:      14162 LATE PREFETCHES: 0 DROPPED PREFETCHES: 0
LLC3 AVERAGE MISS LATENCY: 509.185 cycles
LLC4 TOTAL     ACCESS: 360374  HIT: 248584  MISS: 111790  HIT %: 68.9794  MISS %: 31.0206  AVERAGE MISS PENALTY: 496.103
LLC4 LOAD      ACCESS: 23406  HIT: 18117  MISS:  5289  HIT %: 77.4032  MISS %: 22.5968  AVERAGE MISS PENALTY: 381.759
LLC4 RFO       ACCESS: 82279  HIT: 49541  MISS: 32738  HIT %: 60.211  MISS %: 39.789  AVERAGE MISS PENALTY: 841.083
LLC4 PREFETCH  ACCESS: 138480  HIT: 75577  MISS: 62903  HIT %: 54.5761  MISS %: 45.4239  AVERAGE MISS PENALTY: 411.823
LLC4 WRITEBACK ACCESS: 116209  HIT: 105349  MISS: 10860  HIT %: 90.6548  MISS %: 9.34523  AVERAGE MISS PENALTY: 0
LLC4 PREFETCH  REQUESTED:     0  ISSUED:     0  USEFUL: 16414  USELESS: 497319
 USEFUL LOAD PREFETCHES:      16414 PREFETCH ISSUED TO LOWER LEVEL:     671148  ACCURACY: 2.44566
 TIMELY PREFETCHES:      16414 LATE PREFETCHES: 0 DROPPED PREFETCHES: 0
LLC4 AVERAGE MISS LATENCY: 496.103 cycles
LLC5 TOTAL     ACCESS: 364463  HIT: 252375  MISS: 112088  HIT %: 69.2457  MISS %: 30.7543  AVERAGE MISS PENALTY: 497.084
LLC5 LOAD      ACCESS: 24906  HIT: 19898  MISS:  5008  HIT %: 79.8924  MISS %: 20.1076  AVERAGE MISS PENALTY: 380.32
LLC5 RFO       ACCESS: 83276  HIT: 50719  MISS: 32557  HIT %: 60.9047  MISS %: 39.0953  AVERAGE MISS PENALTY: 849.298
LLC5 PREFETCH  ACCESS: 138922  HIT: 75329  MISS: 63593  HIT %: 54.224  MISS %: 45.776  AVERAGE MISS PENALTY: 411.396
LLC5 WRITEBACK ACCESS: 117359  HIT: 106429  MISS: 10930  HIT %: 90.6867  MISS %: 9.3133  AVERAGE MISS PENALTY: 0
LLC5 PREFETCH  REQUESTED:     0  ISSUED:     0  USEFUL: 14600  USELESS: 504052
 USEFUL LOAD PREFETCHES:      14600 PREFETCH ISSUED TO LOWER LEVEL:     578267  ACCURACY: 2.52479
 TIMELY PREFETCHES:      14600 LATE PREFETCHES: 0 DROPPED PREFETCHES: 0
LLC5 AVERAGE MISS LATENCY: 497.084 cycles
LLC6 TOTAL     ACCESS: 359323  HIT: 247039  MISS: 112284  HIT %: 68.7512  MISS %: 31.2488  AVERAGE MISS PENALTY: 510.856
LLC6 LOAD      ACCESS: 22447  HIT: 17128  MISS:  5319  HIT %: 76.3042  MISS %: 23.6958  AVERAGE MISS PENALTY: 388.058
LLC6 RFO       ACCESS: 82856  HIT: 50086  MISS: 32770  HIT %: 60.4495  MISS %: 39.5505  AVERAGE MISS PENALTY: 873.295
LLC6 PREFETCH  ACCESS: 138249  HIT: 74975  MISS: 63274  HIT %: 54.2319  MISS %: 45.7681  AVERAGE MISS PENALTY: 421.642
LLC6 WRITEBACK ACCESS: 115771  HIT: 104850  MISS: 10921  HIT %: 90.5667  MISS %: 9.43328  AVERAGE MISS PENALTY: 0
LLC6 PREFETCH  REQUESTED:     0  ISSUED:     0  USEFUL: 14607  USELESS: 501261
 USEFUL LOAD PREFETCHES:      14607 PREFETCH ISSUED TO LOWER LEVEL:    1060677  ACCURACY: 1.37714
 TIMELY PREFETCHES:      14607 LATE PREFETCHES: 0 DROPPED PREFETCHES: 0
LLC6 AVERAGE MISS LATENCY: 510.856 cycles
LLC7 TOTAL     ACCESS: 360088  HIT: 248152  MISS: 111936  HIT %: 68.9143  MISS %: 31.0857  AVERAGE MISS PENALTY: 511.677
LLC7 LOAD      ACCESS: 22379  HIT: 17645  MISS:  4734  HIT %: 78.8462  MISS %: 21.1538  AVERAGE MISS PENALTY: 382.122
LLC7 RFO       ACCESS: 82843  HIT: 50321  MISS: 32522  HIT %: 60.7426  MISS %: 39.2574  AVERAGE MISS PENALTY: 881.244
LLC7 PREFETCH  ACCESS: 138234  HIT: 74416  MISS: 63818  HIT %: 53.8334  MISS %: 46.1666  AVERAGE MISS PENALTY: 420.042
LLC7 WRITEBACK ACCESS: 116632  HIT: 105770  MISS: 10862  HIT %: 90.6869  MISS %: 9.31305  AVERAGE MISS PENALTY: 0
LLC7 PREFETCH  REQUESTED:     0  ISSUED:     0  USEFUL: 14108  USELESS: 506045
 USEFUL LOAD PREFETCHES:      14108 PREFETCH ISSUED TO LOWER LEVEL:     625915  ACCURACY: 2.25398
 TIMELY PREFETCHES:      14108 LATE PREFETCHES: 0 DROPPED PREFETCHES: 0
LLC7 AVERAGE MISS LATENCY: 511.677 cycles
ROI Average ROB Stall Cycles:	4.87377
ROI Total ROB Stalls Cycles:	155812872
ROI TOTAL ROB counter      :	31969660
ROI Average Load ROB Stall Cycles:	17.8565
ROI Total Load ROB Stalls Cycle  :	52343130
ROI Total Load ROB stalls Counter:	2931328
Major fault: 0 Minor fault: 13489








Interconnect Stats 
LINK 0 BW : 0LINK 1 BW : 0LINK 2 BW : 0LINK 3 BW : 0LINK 4 BW : 0LINK 5 BW : 0LINK 6 BW : 0LINK 7 BW : 0
DRAM Statistics
 CHANNEL 0
 RQ ROW_BUFFER_HIT: 1100901  ROW_BUFFER_MISS: 2147601
 DBUS_CONGESTED: 4477037
 WQ ROW_BUFFER_HIT: 203994  ROW_BUFFER_MISS: 1387536  FULL:    11

 CHANNEL 1
 RQ ROW_BUFFER_HIT: 1106073  ROW_BUFFER_MISS: 2152529
 DBUS_CONGESTED: 4477037
 WQ ROW_BUFFER_HIT: 205250  ROW_BUFFER_MISS: 1388252  FULL:     0

 AVG_CONGESTED_CYCLE: 6
DRAM PAGES: 2097152
Allocated PAGES: 108167
L2C destructor called
L1D destructor called
L1I destructor called
STLB destructor called
DTLB destructor called
ITLB destructor called
L2C destructor called
L1D destructor called
L1I destructor called
STLB destructor called
DTLB destructor called
ITLB destructor called
L2C destructor called
L1D destructor called
L1I destructor called
STLB destructor called
DTLB destructor called
ITLB destructor called
L2C destructor called
L1D destructor called
L1I destructor called
STLB destructor called
DTLB destructor called
ITLB destructor called
L2C destructor called
L1D destructor called
L1I destructor called
STLB destructor called
DTLB destructor called
ITLB destructor called
L2C destructor called
L1D destructor called
L1I destructor called
STLB destructor called
DTLB destructor called
ITLB destructor called
L2C destructor called
L1D destructor called
L1I destructor called
STLB destructor called
DTLB destructor called
ITLB destructor called
L2C destructor called
L1D destructor called
L1I destructor called
STLB destructor called
DTLB destructor called
ITLB destructor called
