
*** ChampSim Multicore Out-of-Order Simulator ***

Warmup Instructions: 200000000
Simulation Instructions: 200000000
Number of CPUs: 8
threads:1

L1I Configuration:
L1I_SET:64
L1I_WAY:8
L1I_RQ_SIZE:64
L1I_WQ_SIZE:64
L1I_PQ_SIZE:8
L1I_MSHR_SIZE:8

L1D Configuration:
L1D_SET:64
L1D_WAY:12
L1D_RQ_SIZE:64
L1D_WQ_SIZE:64
L1D_PQ_SIZE:8
L1D_MSHR_SIZE:16

L2C Configuration:
L2C_SET:1024
L2C_WAY:8
L2C_RQ_SIZE:32
L2C_WQ_SIZE:32
L2C_PQ_SIZE:16
L2C_MSHR_SIZE:32

LLC Configuration:
LLC_SET:2048
LLC_WAY:16
LLC SLICES:8
LLC_RQ_SIZE:64
LLC_WQ_SIZE:64
LLC_PQ_SIZE:32
LLC_MSHR_SIZE:64

Interconnect OFF
Attacker deprioritize is: OFF
Off-chip DRAM Size: 8192 MB Channels: 2 Width: 64-bit Data Rate: 3200 MT/s
PAGE SIZE in KB: 4.000000 
PAGE SIZE in MB: 0.003906 
PAGE offset in bits: 12 
CEASER-S_LLC:0
MIRAGE : 1
CEASER_LATENCY:3
REMAP : OFF
Partitions : 1
Multi-Step : OFF
BFS : OFF

CPU 0 runs /home/anubhav/spec_2017/654.roms_s-1070B.champsimtrace.xz
CPU 1 runs /home/anubhav/spec_2017/654.roms_s-1070B.champsimtrace.xz
CPU 2 runs /home/anubhav/spec_2017/654.roms_s-1070B.champsimtrace.xz
CPU 3 runs /home/anubhav/spec_2017/654.roms_s-1070B.champsimtrace.xz
CPU 4 runs /home/anubhav/spec_2017/654.roms_s-1070B.champsimtrace.xz
CPU 5 runs /home/anubhav/spec_2017/654.roms_s-1070B.champsimtrace.xz
CPU 6 runs /home/anubhav/spec_2017/654.roms_s-1070B.champsimtrace.xz
CPU 7 runs /home/anubhav/spec_2017/654.roms_s-1070B.champsimtrace.xz
CPU 0 Bimodal branch predictor
Initialize Hawkeye state
Initialize Hawkeye state
Initialize Hawkeye state
Initialize Hawkeye state
Initialize Hawkeye state
Initialize Hawkeye state
Initialize Hawkeye state
Initialize Hawkeye state
CPU 1 Bimodal branch predictor
Initialize Hawkeye state
Initialize Hawkeye state
Initialize Hawkeye state
Initialize Hawkeye state
Initialize Hawkeye state
Initialize Hawkeye state
Initialize Hawkeye state
Initialize Hawkeye state
CPU 2 Bimodal branch predictor
Initialize Hawkeye state
Initialize Hawkeye state
Initialize Hawkeye state
Initialize Hawkeye state
Initialize Hawkeye state
Initialize Hawkeye state
Initialize Hawkeye state
Initialize Hawkeye state
CPU 3 Bimodal branch predictor
Initialize Hawkeye state
Initialize Hawkeye state
Initialize Hawkeye state
Initialize Hawkeye state
Initialize Hawkeye state
Initialize Hawkeye state
Initialize Hawkeye state
Initialize Hawkeye state
CPU 4 Bimodal branch predictor
Initialize Hawkeye state
Initialize Hawkeye state
Initialize Hawkeye state
Initialize Hawkeye state
Initialize Hawkeye state
Initialize Hawkeye state
Initialize Hawkeye state
Initialize Hawkeye state
CPU 5 Bimodal branch predictor
Initialize Hawkeye state
Initialize Hawkeye state
Initialize Hawkeye state
Initialize Hawkeye state
Initialize Hawkeye state
Initialize Hawkeye state
Initialize Hawkeye state
Initialize Hawkeye state
CPU 6 Bimodal branch predictor
Initialize Hawkeye state
Initialize Hawkeye state
Initialize Hawkeye state
Initialize Hawkeye state
Initialize Hawkeye state
Initialize Hawkeye state
Initialize Hawkeye state
Initialize Hawkeye state
CPU 7 Bimodal branch predictor
Initialize Hawkeye state
Initialize Hawkeye state
Initialize Hawkeye state
Initialize Hawkeye state
Initialize Hawkeye state
Initialize Hawkeye state
Initialize Hawkeye state
Initialize Hawkeye state
Heartbeat CPU 2 instructions: 10000001 cycles: 4921230 heartbeat IPC: 2.03201 cumulative IPC: 2.03201 (Simulation time: 0 hr 38 min 1 sec) 
 Total Blocks : 262144 Invalid Blocks : 35
Heartbeat CPU 5 instructions: 10000001 cycles: 4921270 heartbeat IPC: 2.032 cumulative IPC: 2.032 (Simulation time: 0 hr 38 min 1 sec) 
 Total Blocks : 262144 Invalid Blocks : 35
Heartbeat CPU 0 instructions: 10000001 cycles: 4921280 heartbeat IPC: 2.03199 cumulative IPC: 2.03199 (Simulation time: 0 hr 38 min 1 sec) 
 Total Blocks : 262144 Invalid Blocks : 35
Heartbeat CPU 7 instructions: 10000001 cycles: 4921316 heartbeat IPC: 2.03198 cumulative IPC: 2.03198 (Simulation time: 0 hr 38 min 1 sec) 
 Total Blocks : 262144 Invalid Blocks : 35
Heartbeat CPU 4 instructions: 10000001 cycles: 4921326 heartbeat IPC: 2.03197 cumulative IPC: 2.03197 (Simulation time: 0 hr 38 min 1 sec) 
 Total Blocks : 262144 Invalid Blocks : 35
Heartbeat CPU 3 instructions: 10000001 cycles: 4921327 heartbeat IPC: 2.03197 cumulative IPC: 2.03197 (Simulation time: 0 hr 38 min 1 sec) 
 Total Blocks : 262144 Invalid Blocks : 35
Heartbeat CPU 1 instructions: 10000001 cycles: 4921341 heartbeat IPC: 2.03197 cumulative IPC: 2.03197 (Simulation time: 0 hr 38 min 1 sec) 
 Total Blocks : 262144 Invalid Blocks : 35
Heartbeat CPU 6 instructions: 10000001 cycles: 4921388 heartbeat IPC: 2.03195 cumulative IPC: 2.03195 (Simulation time: 0 hr 38 min 1 sec) 
 Total Blocks : 262144 Invalid Blocks : 35
Heartbeat CPU 2 instructions: 20000001 cycles: 9970908 heartbeat IPC: 1.98032 cumulative IPC: 2.00584 (Simulation time: 1 hr 19 min 0 sec) 
 Total Blocks : 262144 Invalid Blocks : 0
Heartbeat CPU 5 instructions: 20000001 cycles: 9970952 heartbeat IPC: 1.98032 cumulative IPC: 2.00583 (Simulation time: 1 hr 19 min 0 sec) 
 Total Blocks : 262144 Invalid Blocks : 0
Heartbeat CPU 0 instructions: 20000001 cycles: 9970970 heartbeat IPC: 1.98032 cumulative IPC: 2.00582 (Simulation time: 1 hr 19 min 0 sec) 
 Total Blocks : 262144 Invalid Blocks : 0
Heartbeat CPU 7 instructions: 20000001 cycles: 9970990 heartbeat IPC: 1.98033 cumulative IPC: 2.00582 (Simulation time: 1 hr 19 min 0 sec) 
 Total Blocks : 262144 Invalid Blocks : 0
Heartbeat CPU 4 instructions: 20000001 cycles: 9970991 heartbeat IPC: 1.98033 cumulative IPC: 2.00582 (Simulation time: 1 hr 19 min 0 sec) 
 Total Blocks : 262144 Invalid Blocks : 0
Heartbeat CPU 3 instructions: 20000001 cycles: 9971013 heartbeat IPC: 1.98032 cumulative IPC: 2.00581 (Simulation time: 1 hr 19 min 0 sec) 
 Total Blocks : 262144 Invalid Blocks : 0
Heartbeat CPU 1 instructions: 20000001 cycles: 9971031 heartbeat IPC: 1.98032 cumulative IPC: 2.00581 (Simulation time: 1 hr 19 min 1 sec) 
 Total Blocks : 262144 Invalid Blocks : 0
Heartbeat CPU 6 instructions: 20000001 cycles: 9971048 heartbeat IPC: 1.98033 cumulative IPC: 2.00581 (Simulation time: 1 hr 19 min 1 sec) 
 Total Blocks : 262144 Invalid Blocks : 0
Heartbeat CPU 2 instructions: 30000001 cycles: 14894006 heartbeat IPC: 2.03124 cumulative IPC: 2.01423 (Simulation time: 2 hr 18 min 21 sec) 
 Total Blocks : 262144 Invalid Blocks : 0
Heartbeat CPU 0 instructions: 30000001 cycles: 14894057 heartbeat IPC: 2.03125 cumulative IPC: 2.01423 (Simulation time: 2 hr 18 min 21 sec) 
 Total Blocks : 262144 Invalid Blocks : 0
Heartbeat CPU 5 instructions: 30000001 cycles: 14894069 heartbeat IPC: 2.03123 cumulative IPC: 2.01422 (Simulation time: 2 hr 18 min 21 sec) 
 Total Blocks : 262144 Invalid Blocks : 0
Heartbeat CPU 3 instructions: 30000001 cycles: 14894098 heartbeat IPC: 2.03125 cumulative IPC: 2.01422 (Simulation time: 2 hr 18 min 21 sec) 
 Total Blocks : 262144 Invalid Blocks : 0
Heartbeat CPU 7 instructions: 30000001 cycles: 14894118 heartbeat IPC: 2.03123 cumulative IPC: 2.01422 (Simulation time: 2 hr 18 min 21 sec) 
 Total Blocks : 262144 Invalid Blocks : 0
Heartbeat CPU 1 instructions: 30000001 cycles: 14894125 heartbeat IPC: 2.03124 cumulative IPC: 2.01422 (Simulation time: 2 hr 18 min 21 sec) 
 Total Blocks : 262144 Invalid Blocks : 0
Heartbeat CPU 6 instructions: 30000001 cycles: 14894145 heartbeat IPC: 2.03124 cumulative IPC: 2.01421 (Simulation time: 2 hr 18 min 21 sec) 
 Total Blocks : 262144 Invalid Blocks : 0
Heartbeat CPU 4 instructions: 30000001 cycles: 14894157 heartbeat IPC: 2.03121 cumulative IPC: 2.01421 (Simulation time: 2 hr 18 min 21 sec) 
 Total Blocks : 262144 Invalid Blocks : 0
Heartbeat CPU 2 instructions: 40000000 cycles: 19934463 heartbeat IPC: 1.98395 cumulative IPC: 2.00658 (Simulation time: 2 hr 54 min 21 sec) 
 Total Blocks : 262144 Invalid Blocks : 0
Heartbeat CPU 5 instructions: 40000000 cycles: 19934528 heartbeat IPC: 1.98395 cumulative IPC: 2.00657 (Simulation time: 2 hr 54 min 21 sec) 
 Total Blocks : 262144 Invalid Blocks : 0
Heartbeat CPU 0 instructions: 40000000 cycles: 19934557 heartbeat IPC: 1.98393 cumulative IPC: 2.00657 (Simulation time: 2 hr 54 min 21 sec) 
 Total Blocks : 262144 Invalid Blocks : 0
Heartbeat CPU 3 instructions: 40000000 cycles: 19934569 heartbeat IPC: 1.98394 cumulative IPC: 2.00656 (Simulation time: 2 hr 54 min 21 sec) 
 Total Blocks : 262144 Invalid Blocks : 0
Heartbeat CPU 7 instructions: 40000000 cycles: 19934578 heartbeat IPC: 1.98395 cumulative IPC: 2.00656 (Simulation time: 2 hr 54 min 21 sec) 
 Total Blocks : 262144 Invalid Blocks : 0
Heartbeat CPU 1 instructions: 40000000 cycles: 19934592 heartbeat IPC: 1.98394 cumulative IPC: 2.00656 (Simulation time: 2 hr 54 min 21 sec) 
 Total Blocks : 262144 Invalid Blocks : 0
Heartbeat CPU 4 instructions: 40000000 cycles: 19934643 heartbeat IPC: 1.98394 cumulative IPC: 2.00656 (Simulation time: 2 hr 54 min 21 sec) 
 Total Blocks : 262144 Invalid Blocks : 0
Heartbeat CPU 6 instructions: 40000000 cycles: 19934655 heartbeat IPC: 1.98393 cumulative IPC: 2.00656 (Simulation time: 2 hr 54 min 21 sec) 
 Total Blocks : 262144 Invalid Blocks : 0
Heartbeat CPU 2 instructions: 50000000 cycles: 24977680 heartbeat IPC: 1.98286 cumulative IPC: 2.00179 (Simulation time: 3 hr 43 min 16 sec) 
 Total Blocks : 262144 Invalid Blocks : 0
Heartbeat CPU 5 instructions: 50000000 cycles: 24977740 heartbeat IPC: 1.98286 cumulative IPC: 2.00178 (Simulation time: 3 hr 43 min 16 sec) 
 Total Blocks : 262144 Invalid Blocks : 0
Heartbeat CPU 0 instructions: 50000000 cycles: 24977768 heartbeat IPC: 1.98286 cumulative IPC: 2.00178 (Simulation time: 3 hr 43 min 16 sec) 
 Total Blocks : 262144 Invalid Blocks : 0
Heartbeat CPU 3 instructions: 50000000 cycles: 24977783 heartbeat IPC: 1.98286 cumulative IPC: 2.00178 (Simulation time: 3 hr 43 min 16 sec) 
 Total Blocks : 262144 Invalid Blocks : 0
Heartbeat CPU 1 instructions: 50000000 cycles: 24977789 heartbeat IPC: 1.98287 cumulative IPC: 2.00178 (Simulation time: 3 hr 43 min 16 sec) 
 Total Blocks : 262144 Invalid Blocks : 0
Heartbeat CPU 7 instructions: 50000000 cycles: 24977806 heartbeat IPC: 1.98286 cumulative IPC: 2.00178 (Simulation time: 3 hr 43 min 16 sec) 
 Total Blocks : 262144 Invalid Blocks : 0
Heartbeat CPU 4 instructions: 50000000 cycles: 24977867 heartbeat IPC: 1.98286 cumulative IPC: 2.00177 (Simulation time: 3 hr 43 min 16 sec) 
 Total Blocks : 262144 Invalid Blocks : 0
Heartbeat CPU 6 instructions: 50000000 cycles: 24977869 heartbeat IPC: 1.98286 cumulative IPC: 2.00177 (Simulation time: 3 hr 43 min 16 sec) 
 Total Blocks : 262144 Invalid Blocks : 0
Heartbeat CPU 2 instructions: 60000003 cycles: 29897583 heartbeat IPC: 2.03256 cumulative IPC: 2.00685 (Simulation time: 4 hr 45 min 30 sec) 
 Total Blocks : 262144 Invalid Blocks : 0
Heartbeat CPU 7 instructions: 60000003 cycles: 29897614 heartbeat IPC: 2.0326 cumulative IPC: 2.00685 (Simulation time: 4 hr 45 min 30 sec) 
 Total Blocks : 262144 Invalid Blocks : 0
Heartbeat CPU 3 instructions: 60000003 cycles: 29897626 heartbeat IPC: 2.03259 cumulative IPC: 2.00685 (Simulation time: 4 hr 45 min 30 sec) 
 Total Blocks : 262144 Invalid Blocks : 0
Heartbeat CPU 5 instructions: 60000003 cycles: 29897633 heartbeat IPC: 2.03257 cumulative IPC: 2.00685 (Simulation time: 4 hr 45 min 30 sec) 
 Total Blocks : 262144 Invalid Blocks : 0
Heartbeat CPU 0 instructions: 60000003 cycles: 29897670 heartbeat IPC: 2.03256 cumulative IPC: 2.00685 (Simulation time: 4 hr 45 min 30 sec) 
 Total Blocks : 262144 Invalid Blocks : 0
Heartbeat CPU 1 instructions: 60000003 cycles: 29897728 heartbeat IPC: 2.03255 cumulative IPC: 2.00684 (Simulation time: 4 hr 45 min 30 sec) 
 Total Blocks : 262144 Invalid Blocks : 0
Heartbeat CPU 6 instructions: 60000003 cycles: 29897755 heartbeat IPC: 2.03257 cumulative IPC: 2.00684 (Simulation time: 4 hr 45 min 30 sec) 
 Total Blocks : 262144 Invalid Blocks : 0
Heartbeat CPU 4 instructions: 60000003 cycles: 29897767 heartbeat IPC: 2.03256 cumulative IPC: 2.00684 (Simulation time: 4 hr 45 min 30 sec) 
 Total Blocks : 262144 Invalid Blocks : 0
Heartbeat CPU 2 instructions: 70000001 cycles: 34950493 heartbeat IPC: 1.97906 cumulative IPC: 2.00283 (Simulation time: 5 hr 38 min 0 sec) 
 Total Blocks : 262144 Invalid Blocks : 0
Heartbeat CPU 7 instructions: 70000001 cycles: 34950498 heartbeat IPC: 1.97907 cumulative IPC: 2.00283 (Simulation time: 5 hr 38 min 0 sec) 
 Total Blocks : 262144 Invalid Blocks : 0
Heartbeat CPU 3 instructions: 70000001 cycles: 34950520 heartbeat IPC: 1.97906 cumulative IPC: 2.00283 (Simulation time: 5 hr 38 min 0 sec) 
 Total Blocks : 262144 Invalid Blocks : 0
Heartbeat CPU 5 instructions: 70000001 cycles: 34950521 heartbeat IPC: 1.97907 cumulative IPC: 2.00283 (Simulation time: 5 hr 38 min 0 sec) 
 Total Blocks : 262144 Invalid Blocks : 0
Heartbeat CPU 0 instructions: 70000001 cycles: 34950637 heartbeat IPC: 1.97903 cumulative IPC: 2.00282 (Simulation time: 5 hr 38 min 0 sec) 
 Total Blocks : 262144 Invalid Blocks : 0
Heartbeat CPU 4 instructions: 70000001 cycles: 34950669 heartbeat IPC: 1.97906 cumulative IPC: 2.00282 (Simulation time: 5 hr 38 min 0 sec) 
 Total Blocks : 262144 Invalid Blocks : 0
Heartbeat CPU 1 instructions: 70000001 cycles: 34950674 heartbeat IPC: 1.97904 cumulative IPC: 2.00282 (Simulation time: 5 hr 38 min 0 sec) 
 Total Blocks : 262144 Invalid Blocks : 0
Heartbeat CPU 6 instructions: 70000001 cycles: 34950697 heartbeat IPC: 1.97904 cumulative IPC: 2.00282 (Simulation time: 5 hr 38 min 0 sec) 
 Total Blocks : 262144 Invalid Blocks : 0
Heartbeat CPU 5 instructions: 80000002 cycles: 39869353 heartbeat IPC: 2.033 cumulative IPC: 2.00655 (Simulation time: 7 hr 6 min 45 sec) 
 Total Blocks : 262144 Invalid Blocks : 0
Heartbeat CPU 7 instructions: 80000002 cycles: 39869396 heartbeat IPC: 2.03298 cumulative IPC: 2.00655 (Simulation time: 7 hr 6 min 45 sec) 
 Total Blocks : 262144 Invalid Blocks : 0
Heartbeat CPU 2 instructions: 80000002 cycles: 39869421 heartbeat IPC: 2.03296 cumulative IPC: 2.00655 (Simulation time: 7 hr 6 min 45 sec) 
 Total Blocks : 262144 Invalid Blocks : 0
Heartbeat CPU 3 instructions: 80000002 cycles: 39869437 heartbeat IPC: 2.03297 cumulative IPC: 2.00655 (Simulation time: 7 hr 6 min 45 sec) 
 Total Blocks : 262144 Invalid Blocks : 0
Heartbeat CPU 6 instructions: 80000002 cycles: 39869588 heartbeat IPC: 2.03298 cumulative IPC: 2.00654 (Simulation time: 7 hr 6 min 45 sec) 
 Total Blocks : 262144 Invalid Blocks : 0
Heartbeat CPU 0 instructions: 80000002 cycles: 39869592 heartbeat IPC: 2.03295 cumulative IPC: 2.00654 (Simulation time: 7 hr 6 min 45 sec) 
 Total Blocks : 262144 Invalid Blocks : 0
Heartbeat CPU 4 instructions: 80000002 cycles: 39869600 heartbeat IPC: 2.03296 cumulative IPC: 2.00654 (Simulation time: 7 hr 6 min 45 sec) 
 Total Blocks : 262144 Invalid Blocks : 0
Heartbeat CPU 1 instructions: 80000002 cycles: 39869642 heartbeat IPC: 2.03295 cumulative IPC: 2.00654 (Simulation time: 7 hr 6 min 45 sec) 
 Total Blocks : 262144 Invalid Blocks : 0
Heartbeat CPU 5 instructions: 90000000 cycles: 44924329 heartbeat IPC: 1.97825 cumulative IPC: 2.00337 (Simulation time: 7 hr 50 min 50 sec) 
 Total Blocks : 262144 Invalid Blocks : 0
Heartbeat CPU 7 instructions: 90000000 cycles: 44924397 heartbeat IPC: 1.97824 cumulative IPC: 2.00337 (Simulation time: 7 hr 50 min 50 sec) 
 Total Blocks : 262144 Invalid Blocks : 0
Heartbeat CPU 2 instructions: 90000000 cycles: 44924420 heartbeat IPC: 1.97824 cumulative IPC: 2.00336 (Simulation time: 7 hr 50 min 50 sec) 
 Total Blocks : 262144 Invalid Blocks : 0
Heartbeat CPU 3 instructions: 90000000 cycles: 44924459 heartbeat IPC: 1.97823 cumulative IPC: 2.00336 (Simulation time: 7 hr 50 min 50 sec) 
 Total Blocks : 262144 Invalid Blocks : 0
Heartbeat CPU 6 instructions: 90000000 cycles: 44924602 heartbeat IPC: 1.97823 cumulative IPC: 2.00336 (Simulation time: 7 hr 50 min 50 sec) 
 Total Blocks : 262144 Invalid Blocks : 0
Heartbeat CPU 4 instructions: 90000000 cycles: 44924609 heartbeat IPC: 1.97824 cumulative IPC: 2.00336 (Simulation time: 7 hr 50 min 50 sec) 
 Total Blocks : 262144 Invalid Blocks : 0
Heartbeat CPU 0 instructions: 90000000 cycles: 44924625 heartbeat IPC: 1.97823 cumulative IPC: 2.00336 (Simulation time: 7 hr 50 min 50 sec) 
 Total Blocks : 262144 Invalid Blocks : 0
Heartbeat CPU 1 instructions: 90000000 cycles: 44924645 heartbeat IPC: 1.97824 cumulative IPC: 2.00335 (Simulation time: 7 hr 50 min 50 sec) 
 Total Blocks : 262144 Invalid Blocks : 0
Heartbeat CPU 5 instructions: 100000000 cycles: 49971206 heartbeat IPC: 1.98142 cumulative IPC: 2.00115 (Simulation time: 8 hr 59 min 2 sec) 
 Total Blocks : 262144 Invalid Blocks : 0
Heartbeat CPU 7 instructions: 100000000 cycles: 49971262 heartbeat IPC: 1.98143 cumulative IPC: 2.00115 (Simulation time: 8 hr 59 min 2 sec) 
 Total Blocks : 262144 Invalid Blocks : 0
Heartbeat CPU 2 instructions: 100000000 cycles: 49971288 heartbeat IPC: 1.98143 cumulative IPC: 2.00115 (Simulation time: 8 hr 59 min 2 sec) 
 Total Blocks : 262144 Invalid Blocks : 0
Heartbeat CPU 3 instructions: 100000000 cycles: 49971332 heartbeat IPC: 1.98142 cumulative IPC: 2.00115 (Simulation time: 8 hr 59 min 2 sec) 
 Total Blocks : 262144 Invalid Blocks : 0
Heartbeat CPU 6 instructions: 100000000 cycles: 49971479 heartbeat IPC: 1.98142 cumulative IPC: 2.00114 (Simulation time: 8 hr 59 min 3 sec) 
 Total Blocks : 262144 Invalid Blocks : 0
Heartbeat CPU 0 instructions: 100000000 cycles: 49971509 heartbeat IPC: 1.98142 cumulative IPC: 2.00114 (Simulation time: 8 hr 59 min 3 sec) 
 Total Blocks : 262144 Invalid Blocks : 0
Heartbeat CPU 4 instructions: 100000000 cycles: 49971514 heartbeat IPC: 1.98141 cumulative IPC: 2.00114 (Simulation time: 8 hr 59 min 3 sec) 
 Total Blocks : 262144 Invalid Blocks : 0
Heartbeat CPU 1 instructions: 100000000 cycles: 49971532 heartbeat IPC: 1.98142 cumulative IPC: 2.00114 (Simulation time: 8 hr 59 min 3 sec) 
 Total Blocks : 262144 Invalid Blocks : 0
Heartbeat CPU 5 instructions: 110000000 cycles: 54894070 heartbeat IPC: 2.03134 cumulative IPC: 2.00386 (Simulation time: 10 hr 20 min 12 sec) 
 Total Blocks : 262144 Invalid Blocks : 0
Heartbeat CPU 7 instructions: 110000000 cycles: 54894091 heartbeat IPC: 2.03135 cumulative IPC: 2.00386 (Simulation time: 10 hr 20 min 12 sec) 
 Total Blocks : 262144 Invalid Blocks : 0
Heartbeat CPU 2 instructions: 110000000 cycles: 54894185 heartbeat IPC: 2.03132 cumulative IPC: 2.00386 (Simulation time: 10 hr 20 min 13 sec) 
 Total Blocks : 262144 Invalid Blocks : 0
Heartbeat CPU 3 instructions: 110000000 cycles: 54894221 heartbeat IPC: 2.03133 cumulative IPC: 2.00385 (Simulation time: 10 hr 20 min 13 sec) 
 Total Blocks : 262144 Invalid Blocks : 0
Heartbeat CPU 6 instructions: 110000000 cycles: 54894340 heartbeat IPC: 2.03134 cumulative IPC: 2.00385 (Simulation time: 10 hr 20 min 13 sec) 
 Total Blocks : 262144 Invalid Blocks : 0
Heartbeat CPU 4 instructions: 110000000 cycles: 54894399 heartbeat IPC: 2.03133 cumulative IPC: 2.00385 (Simulation time: 10 hr 20 min 13 sec) 
 Total Blocks : 262144 Invalid Blocks : 0
Heartbeat CPU 1 instructions: 110000000 cycles: 54894446 heartbeat IPC: 2.03132 cumulative IPC: 2.00385 (Simulation time: 10 hr 20 min 13 sec) 
 Total Blocks : 262144 Invalid Blocks : 0
Heartbeat CPU 0 instructions: 110000000 cycles: 54894465 heartbeat IPC: 2.0313 cumulative IPC: 2.00384 (Simulation time: 10 hr 20 min 13 sec) 
 Total Blocks : 262144 Invalid Blocks : 0
Heartbeat CPU 5 instructions: 120000001 cycles: 59944877 heartbeat IPC: 1.97988 cumulative IPC: 2.00184 (Simulation time: 11 hr 30 min 12 sec) 
 Total Blocks : 262144 Invalid Blocks : 0
Heartbeat CPU 7 instructions: 120000001 cycles: 59944893 heartbeat IPC: 1.97988 cumulative IPC: 2.00184 (Simulation time: 11 hr 30 min 12 sec) 
 Total Blocks : 262144 Invalid Blocks : 0
Heartbeat CPU 2 instructions: 120000001 cycles: 59945004 heartbeat IPC: 1.97988 cumulative IPC: 2.00183 (Simulation time: 11 hr 30 min 12 sec) 
 Total Blocks : 262144 Invalid Blocks : 0
Heartbeat CPU 3 instructions: 120000001 cycles: 59945020 heartbeat IPC: 1.97988 cumulative IPC: 2.00183 (Simulation time: 11 hr 30 min 12 sec) 
 Total Blocks : 262144 Invalid Blocks : 0
Heartbeat CPU 6 instructions: 120000001 cycles: 59945144 heartbeat IPC: 1.97988 cumulative IPC: 2.00183 (Simulation time: 11 hr 30 min 12 sec) 
 Total Blocks : 262144 Invalid Blocks : 0
Heartbeat CPU 4 instructions: 120000001 cycles: 59945202 heartbeat IPC: 1.97988 cumulative IPC: 2.00183 (Simulation time: 11 hr 30 min 12 sec) 
 Total Blocks : 262144 Invalid Blocks : 0
Heartbeat CPU 1 instructions: 120000001 cycles: 59945241 heartbeat IPC: 1.97989 cumulative IPC: 2.00183 (Simulation time: 11 hr 30 min 12 sec) 
 Total Blocks : 262144 Invalid Blocks : 0
Heartbeat CPU 0 instructions: 120000001 cycles: 59945254 heartbeat IPC: 1.97989 cumulative IPC: 2.00183 (Simulation time: 11 hr 30 min 12 sec) 
 Total Blocks : 262144 Invalid Blocks : 0
Heartbeat CPU 5 instructions: 130000001 cycles: 64858376 heartbeat IPC: 2.03521 cumulative IPC: 2.00437 (Simulation time: 13 hr 11 min 46 sec) 
 Total Blocks : 262144 Invalid Blocks : 0
Heartbeat CPU 7 instructions: 130000001 cycles: 64858381 heartbeat IPC: 2.03521 cumulative IPC: 2.00437 (Simulation time: 13 hr 11 min 46 sec) 
 Total Blocks : 262144 Invalid Blocks : 0
Heartbeat CPU 2 instructions: 130000001 cycles: 64858451 heartbeat IPC: 2.03523 cumulative IPC: 2.00436 (Simulation time: 13 hr 11 min 46 sec) 
 Total Blocks : 262144 Invalid Blocks : 0
Heartbeat CPU 3 instructions: 130000001 cycles: 64858541 heartbeat IPC: 2.0352 cumulative IPC: 2.00436 (Simulation time: 13 hr 11 min 47 sec) 
 Total Blocks : 262144 Invalid Blocks : 0
Heartbeat CPU 6 instructions: 130000001 cycles: 64858597 heartbeat IPC: 2.03523 cumulative IPC: 2.00436 (Simulation time: 13 hr 11 min 47 sec) 
 Total Blocks : 262144 Invalid Blocks : 0
Heartbeat CPU 4 instructions: 130000001 cycles: 64858604 heartbeat IPC: 2.03525 cumulative IPC: 2.00436 (Simulation time: 13 hr 11 min 47 sec) 
 Total Blocks : 262144 Invalid Blocks : 0
Heartbeat CPU 0 instructions: 130000001 cycles: 64858729 heartbeat IPC: 2.03522 cumulative IPC: 2.00436 (Simulation time: 13 hr 11 min 47 sec) 
 Total Blocks : 262144 Invalid Blocks : 0
Heartbeat CPU 1 instructions: 130000001 cycles: 64858751 heartbeat IPC: 2.0352 cumulative IPC: 2.00436 (Simulation time: 13 hr 11 min 47 sec) 
 Total Blocks : 262144 Invalid Blocks : 0
Heartbeat CPU 5 instructions: 140000002 cycles: 69913471 heartbeat IPC: 1.9782 cumulative IPC: 2.00248 (Simulation time: 14 hr 1 min 32 sec) 
 Total Blocks : 262144 Invalid Blocks : 0
Heartbeat CPU 7 instructions: 140000002 cycles: 69913483 heartbeat IPC: 1.9782 cumulative IPC: 2.00248 (Simulation time: 14 hr 1 min 32 sec) 
 Total Blocks : 262144 Invalid Blocks : 0
Heartbeat CPU 2 instructions: 140000002 cycles: 69913546 heartbeat IPC: 1.9782 cumulative IPC: 2.00247 (Simulation time: 14 hr 1 min 32 sec) 
 Total Blocks : 262144 Invalid Blocks : 0
Heartbeat CPU 3 instructions: 140000002 cycles: 69913656 heartbeat IPC: 1.97819 cumulative IPC: 2.00247 (Simulation time: 14 hr 1 min 32 sec) 
 Total Blocks : 262144 Invalid Blocks : 0
Heartbeat CPU 6 instructions: 140000002 cycles: 69913699 heartbeat IPC: 1.9782 cumulative IPC: 2.00247 (Simulation time: 14 hr 1 min 32 sec) 
 Total Blocks : 262144 Invalid Blocks : 0
Heartbeat CPU 4 instructions: 140000002 cycles: 69913717 heartbeat IPC: 1.9782 cumulative IPC: 2.00247 (Simulation time: 14 hr 1 min 32 sec) 
 Total Blocks : 262144 Invalid Blocks : 0
Heartbeat CPU 1 instructions: 140000002 cycles: 69913841 heartbeat IPC: 1.9782 cumulative IPC: 2.00246 (Simulation time: 14 hr 1 min 32 sec) 
 Total Blocks : 262144 Invalid Blocks : 0
Heartbeat CPU 0 instructions: 140000002 cycles: 69913883 heartbeat IPC: 1.97818 cumulative IPC: 2.00246 (Simulation time: 14 hr 1 min 32 sec) 
 Total Blocks : 262144 Invalid Blocks : 0
Heartbeat CPU 5 instructions: 150000003 cycles: 74930495 heartbeat IPC: 1.99321 cumulative IPC: 2.00186 (Simulation time: 15 hr 24 min 35 sec) 
 Total Blocks : 262144 Invalid Blocks : 0
Heartbeat CPU 7 instructions: 150000003 cycles: 74930512 heartbeat IPC: 1.99321 cumulative IPC: 2.00185 (Simulation time: 15 hr 24 min 36 sec) 
 Total Blocks : 262144 Invalid Blocks : 0
Heartbeat CPU 2 instructions: 150000003 cycles: 74930515 heartbeat IPC: 1.99324 cumulative IPC: 2.00185 (Simulation time: 15 hr 24 min 36 sec) 
 Total Blocks : 262144 Invalid Blocks : 0
Heartbeat CPU 3 instructions: 150000003 cycles: 74930654 heartbeat IPC: 1.99322 cumulative IPC: 2.00185 (Simulation time: 15 hr 24 min 37 sec) 
 Total Blocks : 262144 Invalid Blocks : 0
Heartbeat CPU 4 instructions: 150000003 cycles: 74930705 heartbeat IPC: 1.99323 cumulative IPC: 2.00185 (Simulation time: 15 hr 24 min 37 sec) 
 Total Blocks : 262144 Invalid Blocks : 0
Heartbeat CPU 6 instructions: 150000003 cycles: 74930723 heartbeat IPC: 1.99321 cumulative IPC: 2.00185 (Simulation time: 15 hr 24 min 38 sec) 
 Total Blocks : 262144 Invalid Blocks : 0
Heartbeat CPU 1 instructions: 150000003 cycles: 74930836 heartbeat IPC: 1.99323 cumulative IPC: 2.00185 (Simulation time: 15 hr 24 min 38 sec) 
 Total Blocks : 262144 Invalid Blocks : 0
Heartbeat CPU 0 instructions: 150000003 cycles: 74930867 heartbeat IPC: 1.99323 cumulative IPC: 2.00185 (Simulation time: 15 hr 24 min 38 sec) 
 Total Blocks : 262144 Invalid Blocks : 0
Heartbeat CPU 5 instructions: 160000001 cycles: 79884849 heartbeat IPC: 2.01843 cumulative IPC: 2.00288 (Simulation time: 16 hr 44 min 37 sec) 
 Total Blocks : 262144 Invalid Blocks : 0
Heartbeat CPU 2 instructions: 160000001 cycles: 79884865 heartbeat IPC: 2.01843 cumulative IPC: 2.00288 (Simulation time: 16 hr 44 min 37 sec) 
 Total Blocks : 262144 Invalid Blocks : 0
Heartbeat CPU 7 instructions: 160000001 cycles: 79884906 heartbeat IPC: 2.01841 cumulative IPC: 2.00288 (Simulation time: 16 hr 44 min 37 sec) 
 Total Blocks : 262144 Invalid Blocks : 0
Heartbeat CPU 3 instructions: 160000001 cycles: 79885040 heartbeat IPC: 2.01841 cumulative IPC: 2.00288 (Simulation time: 16 hr 44 min 38 sec) 
 Total Blocks : 262144 Invalid Blocks : 0
Heartbeat CPU 4 instructions: 160000001 cycles: 79885061 heartbeat IPC: 2.01843 cumulative IPC: 2.00288 (Simulation time: 16 hr 44 min 39 sec) 
 Total Blocks : 262144 Invalid Blocks : 0
Heartbeat CPU 6 instructions: 160000001 cycles: 79885100 heartbeat IPC: 2.01842 cumulative IPC: 2.00288 (Simulation time: 16 hr 44 min 39 sec) 
 Total Blocks : 262144 Invalid Blocks : 0
Heartbeat CPU 1 instructions: 160000001 cycles: 79885162 heartbeat IPC: 2.01844 cumulative IPC: 2.00288 (Simulation time: 16 hr 44 min 39 sec) 
 Total Blocks : 262144 Invalid Blocks : 0
Heartbeat CPU 0 instructions: 160000001 cycles: 79885240 heartbeat IPC: 2.01842 cumulative IPC: 2.00287 (Simulation time: 16 hr 44 min 40 sec) 
 Total Blocks : 262144 Invalid Blocks : 0
Heartbeat CPU 5 instructions: 170000003 cycles: 84936974 heartbeat IPC: 1.97937 cumulative IPC: 2.00148 (Simulation time: 18 hr 2 min 28 sec) 
 Total Blocks : 262144 Invalid Blocks : 0
Heartbeat CPU 2 instructions: 170000003 cycles: 84937001 heartbeat IPC: 1.97936 cumulative IPC: 2.00148 (Simulation time: 18 hr 2 min 28 sec) 
 Total Blocks : 262144 Invalid Blocks : 0
Heartbeat CPU 7 instructions: 170000003 cycles: 84937022 heartbeat IPC: 1.97937 cumulative IPC: 2.00148 (Simulation time: 18 hr 2 min 28 sec) 
 Total Blocks : 262144 Invalid Blocks : 0
Heartbeat CPU 3 instructions: 170000003 cycles: 84937158 heartbeat IPC: 1.97937 cumulative IPC: 2.00148 (Simulation time: 18 hr 2 min 28 sec) 
 Total Blocks : 262144 Invalid Blocks : 0
Heartbeat CPU 4 instructions: 170000003 cycles: 84937187 heartbeat IPC: 1.97937 cumulative IPC: 2.00148 (Simulation time: 18 hr 2 min 28 sec) 
 Total Blocks : 262144 Invalid Blocks : 0
Heartbeat CPU 6 instructions: 170000003 cycles: 84937227 heartbeat IPC: 1.97936 cumulative IPC: 2.00148 (Simulation time: 18 hr 2 min 28 sec) 
 Total Blocks : 262144 Invalid Blocks : 0
Heartbeat CPU 1 instructions: 170000003 cycles: 84937281 heartbeat IPC: 1.97937 cumulative IPC: 2.00148 (Simulation time: 18 hr 2 min 28 sec) 
 Total Blocks : 262144 Invalid Blocks : 0
Heartbeat CPU 0 instructions: 170000003 cycles: 84937368 heartbeat IPC: 1.97936 cumulative IPC: 2.00147 (Simulation time: 18 hr 2 min 28 sec) 
 Total Blocks : 262144 Invalid Blocks : 0
Heartbeat CPU 7 instructions: 180000001 cycles: 89858466 heartbeat IPC: 2.03192 cumulative IPC: 2.00315 (Simulation time: 19 hr 57 min 51 sec) 
 Total Blocks : 262144 Invalid Blocks : 0
Heartbeat CPU 5 instructions: 180000001 cycles: 89858495 heartbeat IPC: 2.03189 cumulative IPC: 2.00315 (Simulation time: 19 hr 57 min 51 sec) 
 Total Blocks : 262144 Invalid Blocks : 0
Heartbeat CPU 2 instructions: 180000001 cycles: 89858565 heartbeat IPC: 2.03187 cumulative IPC: 2.00315 (Simulation time: 19 hr 57 min 51 sec) 
 Total Blocks : 262144 Invalid Blocks : 0
Heartbeat CPU 3 instructions: 180000001 cycles: 89858659 heartbeat IPC: 2.0319 cumulative IPC: 2.00315 (Simulation time: 19 hr 57 min 51 sec) 
 Total Blocks : 262144 Invalid Blocks : 0
Heartbeat CPU 4 instructions: 180000001 cycles: 89858774 heartbeat IPC: 2.03186 cumulative IPC: 2.00314 (Simulation time: 19 hr 57 min 51 sec) 
 Total Blocks : 262144 Invalid Blocks : 0
Heartbeat CPU 6 instructions: 180000001 cycles: 89858807 heartbeat IPC: 2.03187 cumulative IPC: 2.00314 (Simulation time: 19 hr 57 min 51 sec) 
 Total Blocks : 262144 Invalid Blocks : 0
Heartbeat CPU 1 instructions: 180000001 cycles: 89858844 heartbeat IPC: 2.03187 cumulative IPC: 2.00314 (Simulation time: 19 hr 57 min 51 sec) 
 Total Blocks : 262144 Invalid Blocks : 0
Heartbeat CPU 0 instructions: 180000001 cycles: 89858891 heartbeat IPC: 2.03189 cumulative IPC: 2.00314 (Simulation time: 19 hr 57 min 51 sec) 
 Total Blocks : 262144 Invalid Blocks : 0
Heartbeat CPU 7 instructions: 190000000 cycles: 94913066 heartbeat IPC: 1.9784 cumulative IPC: 2.00183 (Simulation time: 20 hr 59 min 47 sec) 
 Total Blocks : 262144 Invalid Blocks : 0
Heartbeat CPU 5 instructions: 190000000 cycles: 94913091 heartbeat IPC: 1.9784 cumulative IPC: 2.00183 (Simulation time: 20 hr 59 min 47 sec) 
 Total Blocks : 262144 Invalid Blocks : 0
Heartbeat CPU 2 instructions: 190000000 cycles: 94913182 heartbeat IPC: 1.97839 cumulative IPC: 2.00183 (Simulation time: 20 hr 59 min 47 sec) 
 Total Blocks : 262144 Invalid Blocks : 0
Heartbeat CPU 3 instructions: 190000000 cycles: 94913267 heartbeat IPC: 1.97839 cumulative IPC: 2.00183 (Simulation time: 20 hr 59 min 47 sec) 
 Total Blocks : 262144 Invalid Blocks : 0
Heartbeat CPU 4 instructions: 190000000 cycles: 94913382 heartbeat IPC: 1.97839 cumulative IPC: 2.00183 (Simulation time: 20 hr 59 min 47 sec) 
 Total Blocks : 262144 Invalid Blocks : 0
Heartbeat CPU 6 instructions: 190000000 cycles: 94913423 heartbeat IPC: 1.97839 cumulative IPC: 2.00182 (Simulation time: 20 hr 59 min 47 sec) 
 Total Blocks : 262144 Invalid Blocks : 0
Heartbeat CPU 1 instructions: 190000000 cycles: 94913467 heartbeat IPC: 1.97839 cumulative IPC: 2.00182 (Simulation time: 20 hr 59 min 47 sec) 
 Total Blocks : 262144 Invalid Blocks : 0
Heartbeat CPU 0 instructions: 190000000 cycles: 94913502 heartbeat IPC: 1.97839 cumulative IPC: 2.00182 (Simulation time: 20 hr 59 min 47 sec) 
 Total Blocks : 262144 Invalid Blocks : 0
Heartbeat CPU 7 instructions: 200000000 cycles: 99988753 heartbeat IPC: 1.97018 cumulative IPC: 2.00023 (Simulation time: 22 hr 38 min 50 sec) 
 Total Blocks : 262144 Invalid Blocks : 0
Heartbeat CPU 5 instructions: 200000000 cycles: 99988834 heartbeat IPC: 1.97015 cumulative IPC: 2.00022 (Simulation time: 22 hr 38 min 50 sec) 
 Total Blocks : 262144 Invalid Blocks : 0
Heartbeat CPU 2 instructions: 200000000 cycles: 99988953 heartbeat IPC: 1.97014 cumulative IPC: 2.00022 (Simulation time: 22 hr 38 min 52 sec) 
 Total Blocks : 262144 Invalid Blocks : 0
Heartbeat CPU 3 instructions: 200000000 cycles: 99989021 heartbeat IPC: 1.97015 cumulative IPC: 2.00022 (Simulation time: 22 hr 38 min 53 sec) 
 Total Blocks : 262144 Invalid Blocks : 0
Heartbeat CPU 4 instructions: 200000000 cycles: 99989123 heartbeat IPC: 1.97016 cumulative IPC: 2.00022 (Simulation time: 22 hr 38 min 54 sec) 
 Total Blocks : 262144 Invalid Blocks : 0
Heartbeat CPU 6 instructions: 200000000 cycles: 99989137 heartbeat IPC: 1.97017 cumulative IPC: 2.00022 (Simulation time: 22 hr 38 min 54 sec) 
 Total Blocks : 262144 Invalid Blocks : 0
Heartbeat CPU 1 instructions: 200000000 cycles: 99989206 heartbeat IPC: 1.97016 cumulative IPC: 2.00022 (Simulation time: 22 hr 38 min 55 sec) 
 Total Blocks : 262144 Invalid Blocks : 0
Heartbeat CPU 0 instructions: 200000000 cycles: 99989254 heartbeat IPC: 1.97015 cumulative IPC: 2.00022 (Simulation time: 22 hr 38 min 56 sec) 
 Total Blocks : 262144 Invalid Blocks : 0

Warmup complete CPU 0 instructions: 200000004 cycles: 99989257 (Simulation time: 22 hr 38 min 56 sec) 
Warmup complete CPU 1 instructions: 200000071 cycles: 99989256 (Simulation time: 22 hr 38 min 56 sec) 
Warmup complete CPU 2 instructions: 200000566 cycles: 99989256 (Simulation time: 22 hr 38 min 56 sec) 
Warmup complete CPU 3 instructions: 200000422 cycles: 99989256 (Simulation time: 22 hr 38 min 56 sec) 
Warmup complete CPU 4 instructions: 200000263 cycles: 99989256 (Simulation time: 22 hr 38 min 56 sec) 
Warmup complete CPU 5 instructions: 200000770 cycles: 99989256 (Simulation time: 22 hr 38 min 56 sec) 
Warmup complete CPU 6 instructions: 200000246 cycles: 99989256 (Simulation time: 22 hr 38 min 56 sec) 
Warmup complete CPU 7 instructions: 200000962 cycles: 99989256 (Simulation time: 22 hr 38 min 56 sec) 

Heartbeat CPU 1 instructions: 210000002 cycles: 129831991 heartbeat IPC: 0.335089 cumulative IPC: 0.335088 (Simulation time: 23 hr 47 min 51 sec) 
 Total Blocks : 262144 Invalid Blocks : 0
Heartbeat CPU 6 instructions: 210000002 cycles: 129951115 heartbeat IPC: 0.333756 cumulative IPC: 0.33375 (Simulation time: 23 hr 48 min 38 sec) 
 Total Blocks : 262144 Invalid Blocks : 0
Heartbeat CPU 5 instructions: 210000002 cycles: 130146974 heartbeat IPC: 0.331585 cumulative IPC: 0.331565 (Simulation time: 23 hr 49 min 53 sec) 
 Total Blocks : 262144 Invalid Blocks : 0
Heartbeat CPU 7 instructions: 210000002 cycles: 130152307 heartbeat IPC: 0.331526 cumulative IPC: 0.3315 (Simulation time: 23 hr 49 min 55 sec) 
 Total Blocks : 262144 Invalid Blocks : 0
Heartbeat CPU 4 instructions: 210000002 cycles: 130233754 heartbeat IPC: 0.330637 cumulative IPC: 0.33063 (Simulation time: 23 hr 50 min 27 sec) 
 Total Blocks : 262144 Invalid Blocks : 0
Heartbeat CPU 0 instructions: 210000002 cycles: 130357937 heartbeat IPC: 0.329287 cumulative IPC: 0.329287 (Simulation time: 23 hr 51 min 14 sec) 
 Total Blocks : 262144 Invalid Blocks : 0
Heartbeat CPU 2 instructions: 210000002 cycles: 130470200 heartbeat IPC: 0.328071 cumulative IPC: 0.328055 (Simulation time: 23 hr 52 min 0 sec) 
 Total Blocks : 262144 Invalid Blocks : 0
Heartbeat CPU 3 instructions: 210000002 cycles: 130496931 heartbeat IPC: 0.327784 cumulative IPC: 0.327773 (Simulation time: 23 hr 52 min 8 sec) 
 Total Blocks : 262144 Invalid Blocks : 0
Heartbeat CPU 1 instructions: 220000000 cycles: 142586176 heartbeat IPC: 0.784056 cumulative IPC: 0.469516 (Simulation time: 25 hr 25 min 52 sec) 
 Total Blocks : 262144 Invalid Blocks : 0
Heartbeat CPU 6 instructions: 220000000 cycles: 142600647 heartbeat IPC: 0.790543 cumulative IPC: 0.469352 (Simulation time: 25 hr 26 min 0 sec) 
 Total Blocks : 262144 Invalid Blocks : 0
Heartbeat CPU 5 instructions: 220000000 cycles: 142668727 heartbeat IPC: 0.79861 cumulative IPC: 0.468591 (Simulation time: 25 hr 26 min 32 sec) 
 Total Blocks : 262144 Invalid Blocks : 0
Heartbeat CPU 7 instructions: 220000000 cycles: 142746693 heartbeat IPC: 0.794004 cumulative IPC: 0.467732 (Simulation time: 25 hr 27 min 11 sec) 
 Total Blocks : 262144 Invalid Blocks : 0
Heartbeat CPU 4 instructions: 220000000 cycles: 142812579 heartbeat IPC: 0.794987 cumulative IPC: 0.467029 (Simulation time: 25 hr 27 min 44 sec) 
 Total Blocks : 262144 Invalid Blocks : 0
Heartbeat CPU 2 instructions: 220000000 cycles: 142895305 heartbeat IPC: 0.804822 cumulative IPC: 0.466122 (Simulation time: 25 hr 28 min 25 sec) 
 Total Blocks : 262144 Invalid Blocks : 0
Heartbeat CPU 3 instructions: 220000000 cycles: 142938969 heartbeat IPC: 0.803727 cumulative IPC: 0.465651 (Simulation time: 25 hr 28 min 46 sec) 
 Total Blocks : 262144 Invalid Blocks : 0
Heartbeat CPU 0 instructions: 220000000 cycles: 142948918 heartbeat IPC: 0.794219 cumulative IPC: 0.465553 (Simulation time: 25 hr 28 min 50 sec) 
 Total Blocks : 262144 Invalid Blocks : 0
Heartbeat CPU 1 instructions: 230000001 cycles: 172575696 heartbeat IPC: 0.33345 cumulative IPC: 0.413299 (Simulation time: 28 hr 7 min 51 sec) 
 Total Blocks : 262144 Invalid Blocks : 0
Heartbeat CPU 6 instructions: 230000001 cycles: 172582197 heartbeat IPC: 0.333539 cumulative IPC: 0.41326 (Simulation time: 28 hr 7 min 51 sec) 
 Total Blocks : 262144 Invalid Blocks : 0
Heartbeat CPU 5 instructions: 230000001 cycles: 172593703 heartbeat IPC: 0.334169 cumulative IPC: 0.413187 (Simulation time: 28 hr 7 min 52 sec) 
 Total Blocks : 262144 Invalid Blocks : 0
Heartbeat CPU 3 instructions: 230000001 cycles: 172642433 heartbeat IPC: 0.336661 cumulative IPC: 0.412915 (Simulation time: 28 hr 7 min 56 sec) 
 Total Blocks : 262144 Invalid Blocks : 0
Heartbeat CPU 7 instructions: 230000000 cycles: 172669370 heartbeat IPC: 0.334195 cumulative IPC: 0.412754 (Simulation time: 28 hr 7 min 58 sec) 
 Total Blocks : 262144 Invalid Blocks : 0
Heartbeat CPU 4 instructions: 230000001 cycles: 173023012 heartbeat IPC: 0.331012 cumulative IPC: 0.410765 (Simulation time: 28 hr 8 min 25 sec) 
 Total Blocks : 262144 Invalid Blocks : 0
Heartbeat CPU 2 instructions: 230000000 cycles: 173159942 heartbeat IPC: 0.330419 cumulative IPC: 0.409993 (Simulation time: 28 hr 8 min 35 sec) 
 Total Blocks : 262144 Invalid Blocks : 0
Heartbeat CPU 0 instructions: 230000001 cycles: 173244744 heartbeat IPC: 0.330079 cumulative IPC: 0.409526 (Simulation time: 28 hr 8 min 42 sec) 
 Total Blocks : 262144 Invalid Blocks : 0
Heartbeat CPU 1 instructions: 240000000 cycles: 192457124 heartbeat IPC: 0.502982 cumulative IPC: 0.432582 (Simulation time: 29 hr 33 min 43 sec) 
 Total Blocks : 262144 Invalid Blocks : 0
Heartbeat CPU 6 instructions: 240000000 cycles: 192528617 heartbeat IPC: 0.501343 cumulative IPC: 0.432246 (Simulation time: 29 hr 34 min 20 sec) 
 Total Blocks : 262144 Invalid Blocks : 0
Heartbeat CPU 7 instructions: 240000000 cycles: 192633921 heartbeat IPC: 0.500888 cumulative IPC: 0.431747 (Simulation time: 29 hr 35 min 10 sec) 
 Total Blocks : 262144 Invalid Blocks : 0
Heartbeat CPU 5 instructions: 240000000 cycles: 192677797 heartbeat IPC: 0.497906 cumulative IPC: 0.431545 (Simulation time: 29 hr 35 min 31 sec) 
 Total Blocks : 262144 Invalid Blocks : 0
Heartbeat CPU 3 instructions: 240000000 cycles: 192717082 heartbeat IPC: 0.498141 cumulative IPC: 0.431365 (Simulation time: 29 hr 35 min 51 sec) 
 Total Blocks : 262144 Invalid Blocks : 0
Heartbeat CPU 4 instructions: 240000000 cycles: 193426206 heartbeat IPC: 0.490119 cumulative IPC: 0.428093 (Simulation time: 29 hr 41 min 44 sec) 
 Total Blocks : 262144 Invalid Blocks : 0
Heartbeat CPU 2 instructions: 240000000 cycles: 193436184 heartbeat IPC: 0.493188 cumulative IPC: 0.428044 (Simulation time: 29 hr 41 min 50 sec) 
 Total Blocks : 262144 Invalid Blocks : 0
Heartbeat CPU 0 instructions: 240000000 cycles: 193603495 heartbeat IPC: 0.491189 cumulative IPC: 0.427285 (Simulation time: 29 hr 43 min 14 sec) 
 Total Blocks : 262144 Invalid Blocks : 0
Heartbeat CPU 1 instructions: 250000000 cycles: 207401993 heartbeat IPC: 0.669126 cumulative IPC: 0.465493 (Simulation time: 31 hr 45 min 9 sec) 
 Total Blocks : 262144 Invalid Blocks : 0
Heartbeat CPU 6 instructions: 250000000 cycles: 207580242 heartbeat IPC: 0.66438 cumulative IPC: 0.464721 (Simulation time: 31 hr 46 min 44 sec) 
 Total Blocks : 262144 Invalid Blocks : 0
Heartbeat CPU 5 instructions: 250000000 cycles: 207733170 heartbeat IPC: 0.664215 cumulative IPC: 0.464056 (Simulation time: 31 hr 48 min 9 sec) 
 Total Blocks : 262144 Invalid Blocks : 0
Heartbeat CPU 7 instructions: 250000000 cycles: 207819156 heartbeat IPC: 0.658534 cumulative IPC: 0.463684 (Simulation time: 31 hr 48 min 55 sec) 
 Total Blocks : 262144 Invalid Blocks : 0
Heartbeat CPU 3 instructions: 250000000 cycles: 207919587 heartbeat IPC: 0.657786 cumulative IPC: 0.463258 (Simulation time: 31 hr 49 min 48 sec) 
 Total Blocks : 262144 Invalid Blocks : 0
Heartbeat CPU 4 instructions: 250000000 cycles: 209048307 heartbeat IPC: 0.640119 cumulative IPC: 0.458465 (Simulation time: 31 hr 59 min 25 sec) 
 Total Blocks : 262144 Invalid Blocks : 0
Heartbeat CPU 2 instructions: 250000000 cycles: 209243392 heartbeat IPC: 0.632623 cumulative IPC: 0.457643 (Simulation time: 32 hr 1 min 4 sec) 
 Total Blocks : 262144 Invalid Blocks : 0
Heartbeat CPU 0 instructions: 250000000 cycles: 209541370 heartbeat IPC: 0.627436 cumulative IPC: 0.456404 (Simulation time: 32 hr 3 min 30 sec) 
 Total Blocks : 262144 Invalid Blocks : 0
Heartbeat CPU 1 instructions: 260000000 cycles: 241881052 heartbeat IPC: 0.290031 cumulative IPC: 0.422857 (Simulation time: 34 hr 4 min 3 sec) 
 Total Blocks : 262144 Invalid Blocks : 0
Heartbeat CPU 5 instructions: 260000000 cycles: 242290301 heartbeat IPC: 0.289376 cumulative IPC: 0.421636 (Simulation time: 34 hr 6 min 37 sec) 
 Total Blocks : 262144 Invalid Blocks : 0
Heartbeat CPU 6 instructions: 260000002 cycles: 242293701 heartbeat IPC: 0.288073 cumulative IPC: 0.42163 (Simulation time: 34 hr 6 min 37 sec) 
 Total Blocks : 262144 Invalid Blocks : 0
Heartbeat CPU 3 instructions: 260000002 cycles: 242446682 heartbeat IPC: 0.289628 cumulative IPC: 0.421176 (Simulation time: 34 hr 7 min 32 sec) 
 Total Blocks : 262144 Invalid Blocks : 0
Heartbeat CPU 7 instructions: 260000002 cycles: 242480166 heartbeat IPC: 0.288509 cumulative IPC: 0.421073 (Simulation time: 34 hr 7 min 46 sec) 
 Total Blocks : 262144 Invalid Blocks : 0
Heartbeat CPU 4 instructions: 260000002 cycles: 243712705 heartbeat IPC: 0.28848 cumulative IPC: 0.417467 (Simulation time: 34 hr 15 min 57 sec) 
 Total Blocks : 262144 Invalid Blocks : 0
Heartbeat CPU 2 instructions: 260000000 cycles: 243911828 heartbeat IPC: 0.288447 cumulative IPC: 0.416887 (Simulation time: 34 hr 17 min 21 sec) 
 Total Blocks : 262144 Invalid Blocks : 0
Heartbeat CPU 0 instructions: 260000002 cycles: 244052961 heartbeat IPC: 0.289758 cumulative IPC: 0.416482 (Simulation time: 34 hr 18 min 21 sec) 
 Total Blocks : 262144 Invalid Blocks : 0
Heartbeat CPU 6 instructions: 270000000 cycles: 256169380 heartbeat IPC: 0.720685 cumulative IPC: 0.448199 (Simulation time: 36 hr 12 min 59 sec) 
 Total Blocks : 262144 Invalid Blocks : 0
Heartbeat CPU 1 instructions: 270000002 cycles: 256199251 heartbeat IPC: 0.698412 cumulative IPC: 0.448114 (Simulation time: 36 hr 13 min 18 sec) 
 Total Blocks : 262144 Invalid Blocks : 0
Heartbeat CPU 5 instructions: 270000000 cycles: 256324619 heartbeat IPC: 0.712539 cumulative IPC: 0.44775 (Simulation time: 36 hr 14 min 33 sec) 
 Total Blocks : 262144 Invalid Blocks : 0
Heartbeat CPU 3 instructions: 270000002 cycles: 256492053 heartbeat IPC: 0.711978 cumulative IPC: 0.447274 (Simulation time: 36 hr 16 min 16 sec) 
 Total Blocks : 262144 Invalid Blocks : 0
Heartbeat CPU 7 instructions: 270000000 cycles: 256520944 heartbeat IPC: 0.712211 cumulative IPC: 0.447188 (Simulation time: 36 hr 16 min 36 sec) 
 Total Blocks : 262144 Invalid Blocks : 0
Heartbeat CPU 4 instructions: 270000000 cycles: 257590869 heartbeat IPC: 0.720556 cumulative IPC: 0.444156 (Simulation time: 36 hr 27 min 35 sec) 
 Total Blocks : 262144 Invalid Blocks : 0
Heartbeat CPU 2 instructions: 270000000 cycles: 257610935 heartbeat IPC: 0.729975 cumulative IPC: 0.444098 (Simulation time: 36 hr 27 min 47 sec) 
 Total Blocks : 262144 Invalid Blocks : 0
Heartbeat CPU 0 instructions: 270000000 cycles: 257916746 heartbeat IPC: 0.721304 cumulative IPC: 0.443241 (Simulation time: 36 hr 31 min 1 sec) 
 Total Blocks : 262144 Invalid Blocks : 0
Heartbeat CPU 6 instructions: 280000001 cycles: 284350099 heartbeat IPC: 0.354853 cumulative IPC: 0.43393 (Simulation time: 39 hr 55 min 58 sec) 
 Total Blocks : 262144 Invalid Blocks : 0
Heartbeat CPU 1 instructions: 280000001 cycles: 284568396 heartbeat IPC: 0.352496 cumulative IPC: 0.433418 (Simulation time: 39 hr 56 min 14 sec) 
 Total Blocks : 262144 Invalid Blocks : 0
Heartbeat CPU 5 instructions: 280000001 cycles: 284646420 heartbeat IPC: 0.353085 cumulative IPC: 0.433231 (Simulation time: 39 hr 56 min 19 sec) 
 Total Blocks : 262144 Invalid Blocks : 0
Heartbeat CPU 7 instructions: 280000000 cycles: 284666957 heartbeat IPC: 0.35529 cumulative IPC: 0.433182 (Simulation time: 39 hr 56 min 21 sec) 
 Total Blocks : 262144 Invalid Blocks : 0
Heartbeat CPU 3 instructions: 280000001 cycles: 284746412 heartbeat IPC: 0.353928 cumulative IPC: 0.432999 (Simulation time: 39 hr 56 min 27 sec) 
 Total Blocks : 262144 Invalid Blocks : 0
Heartbeat CPU 2 instructions: 280000001 cycles: 286488824 heartbeat IPC: 0.346286 cumulative IPC: 0.428952 (Simulation time: 39 hr 58 min 33 sec) 
 Total Blocks : 262144 Invalid Blocks : 0
Heartbeat CPU 4 instructions: 280000001 cycles: 286630194 heartbeat IPC: 0.344361 cumulative IPC: 0.428629 (Simulation time: 39 hr 58 min 43 sec) 
 Total Blocks : 262144 Invalid Blocks : 0
Heartbeat CPU 0 instructions: 280000001 cycles: 287030556 heartbeat IPC: 0.34348 cumulative IPC: 0.427713 (Simulation time: 39 hr 59 min 12 sec) 
 Total Blocks : 262144 Invalid Blocks : 0
Heartbeat CPU 6 instructions: 290000000 cycles: 306870297 heartbeat IPC: 0.444046 cumulative IPC: 0.435031 (Simulation time: 41 hr 21 min 28 sec) 
 Total Blocks : 262144 Invalid Blocks : 0
Heartbeat CPU 1 instructions: 290000000 cycles: 306899348 heartbeat IPC: 0.447809 cumulative IPC: 0.434971 (Simulation time: 41 hr 21 min 43 sec) 
 Total Blocks : 262144 Invalid Blocks : 0
Heartbeat CPU 5 instructions: 290000000 cycles: 306921431 heartbeat IPC: 0.448934 cumulative IPC: 0.434921 (Simulation time: 41 hr 21 min 55 sec) 
 Total Blocks : 262144 Invalid Blocks : 0
Heartbeat CPU 7 instructions: 290000000 cycles: 307119605 heartbeat IPC: 0.445382 cumulative IPC: 0.434504 (Simulation time: 41 hr 23 min 43 sec) 
 Total Blocks : 262144 Invalid Blocks : 0
Heartbeat CPU 3 instructions: 290000000 cycles: 307224390 heartbeat IPC: 0.44488 cumulative IPC: 0.434287 (Simulation time: 41 hr 24 min 42 sec) 
 Total Blocks : 262144 Invalid Blocks : 0
Heartbeat CPU 2 instructions: 290000000 cycles: 308821302 heartbeat IPC: 0.447778 cumulative IPC: 0.430966 (Simulation time: 41 hr 39 min 34 sec) 
 Total Blocks : 262144 Invalid Blocks : 0
Heartbeat CPU 4 instructions: 290000000 cycles: 308952275 heartbeat IPC: 0.447987 cumulative IPC: 0.430697 (Simulation time: 41 hr 40 min 34 sec) 
 Total Blocks : 262144 Invalid Blocks : 0
Heartbeat CPU 0 instructions: 290000000 cycles: 309230669 heartbeat IPC: 0.450448 cumulative IPC: 0.430125 (Simulation time: 41 hr 43 min 3 sec) 
 Total Blocks : 262144 Invalid Blocks : 0
Heartbeat CPU 1 instructions: 300000000 cycles: 319899589 heartbeat IPC: 0.769217 cumulative IPC: 0.45473 (Simulation time: 43 hr 26 min 0 sec) 
 Total Blocks : 262144 Invalid Blocks : 0
Heartbeat CPU 6 instructions: 300000000 cycles: 319939604 heartbeat IPC: 0.765152 cumulative IPC: 0.454647 (Simulation time: 43 hr 26 min 24 sec) 
 Total Blocks : 262144 Invalid Blocks : 0
Heartbeat CPU 5 instructions: 300000000 cycles: 319984100 heartbeat IPC: 0.76554 cumulative IPC: 0.454553 (Simulation time: 43 hr 26 min 51 sec) 
 Total Blocks : 262144 Invalid Blocks : 0
Heartbeat CPU 7 instructions: 300000000 cycles: 320253405 heartbeat IPC: 0.761394 cumulative IPC: 0.453996 (Simulation time: 43 hr 29 min 31 sec) 
 Total Blocks : 262144 Invalid Blocks : 0
Heartbeat CPU 3 instructions: 300000000 cycles: 320305033 heartbeat IPC: 0.764488 cumulative IPC: 0.453892 (Simulation time: 43 hr 30 min 7 sec) 
 Total Blocks : 262144 Invalid Blocks : 0
Heartbeat CPU 2 instructions: 300000000 cycles: 322187850 heartbeat IPC: 0.748136 cumulative IPC: 0.450045 (Simulation time: 43 hr 51 min 31 sec) 
 Total Blocks : 262144 Invalid Blocks : 0
Heartbeat CPU 4 instructions: 300000000 cycles: 322197798 heartbeat IPC: 0.754972 cumulative IPC: 0.450027 (Simulation time: 43 hr 51 min 37 sec) 
 Total Blocks : 262144 Invalid Blocks : 0
Heartbeat CPU 0 instructions: 300000000 cycles: 322896460 heartbeat IPC: 0.731754 cumulative IPC: 0.448617 (Simulation time: 43 hr 59 min 9 sec) 
 Total Blocks : 262144 Invalid Blocks : 0
Heartbeat CPU 6 instructions: 310000002 cycles: 355859710 heartbeat IPC: 0.278396 cumulative IPC: 0.429904 (Simulation time: 46 hr 31 min 39 sec) 
 Total Blocks : 262144 Invalid Blocks : 0
Heartbeat CPU 1 instructions: 310000002 cycles: 355948143 heartbeat IPC: 0.277404 cumulative IPC: 0.429756 (Simulation time: 46 hr 32 min 1 sec) 
 Total Blocks : 262144 Invalid Blocks : 0
Heartbeat CPU 5 instructions: 310000002 cycles: 356101853 heartbeat IPC: 0.276872 cumulative IPC: 0.429496 (Simulation time: 46 hr 32 min 43 sec) 
 Total Blocks : 262144 Invalid Blocks : 0
Heartbeat CPU 7 instructions: 310000001 cycles: 356177155 heartbeat IPC: 0.278367 cumulative IPC: 0.429369 (Simulation time: 46 hr 33 min 2 sec) 
 Total Blocks : 262144 Invalid Blocks : 0
Heartbeat CPU 3 instructions: 310000002 cycles: 356289174 heartbeat IPC: 0.2779 cumulative IPC: 0.429183 (Simulation time: 46 hr 33 min 33 sec) 
 Total Blocks : 262144 Invalid Blocks : 0
Heartbeat CPU 2 instructions: 310000002 cycles: 359507084 heartbeat IPC: 0.267958 cumulative IPC: 0.423861 (Simulation time: 46 hr 50 min 45 sec) 
 Total Blocks : 262144 Invalid Blocks : 0
Heartbeat CPU 4 instructions: 310000002 cycles: 359524124 heartbeat IPC: 0.267907 cumulative IPC: 0.423834 (Simulation time: 46 hr 50 min 51 sec) 
 Total Blocks : 262144 Invalid Blocks : 0
Heartbeat CPU 0 instructions: 310000002 cycles: 360725891 heartbeat IPC: 0.264345 cumulative IPC: 0.421882 (Simulation time: 46 hr 59 min 48 sec) 
 Total Blocks : 262144 Invalid Blocks : 0
Heartbeat CPU 5 instructions: 320000000 cycles: 371039267 heartbeat IPC: 0.66946 cumulative IPC: 0.44272 (Simulation time: 48 hr 36 min 43 sec) 
 Total Blocks : 262144 Invalid Blocks : 0
Heartbeat CPU 6 instructions: 320000000 cycles: 371045309 heartbeat IPC: 0.658518 cumulative IPC: 0.442712 (Simulation time: 48 hr 36 min 47 sec) 
 Total Blocks : 262144 Invalid Blocks : 0
Heartbeat CPU 1 instructions: 320000000 cycles: 371124082 heartbeat IPC: 0.658938 cumulative IPC: 0.442584 (Simulation time: 48 hr 37 min 31 sec) 
 Total Blocks : 262144 Invalid Blocks : 0
Heartbeat CPU 7 instructions: 320000000 cycles: 371151142 heartbeat IPC: 0.667825 cumulative IPC: 0.442537 (Simulation time: 48 hr 37 min 46 sec) 
 Total Blocks : 262144 Invalid Blocks : 0
Heartbeat CPU 3 instructions: 320000000 cycles: 371293630 heartbeat IPC: 0.666469 cumulative IPC: 0.442306 (Simulation time: 48 hr 39 min 12 sec) 
 Total Blocks : 262144 Invalid Blocks : 0
Heartbeat CPU 2 instructions: 320000000 cycles: 373749888 heartbeat IPC: 0.702109 cumulative IPC: 0.438337 (Simulation time: 49 hr 3 min 32 sec) 
 Total Blocks : 262144 Invalid Blocks : 0
Heartbeat CPU 4 instructions: 320000000 cycles: 373773001 heartbeat IPC: 0.70181 cumulative IPC: 0.438301 (Simulation time: 49 hr 3 min 44 sec) 
 Total Blocks : 262144 Invalid Blocks : 0
Heartbeat CPU 0 instructions: 320000000 cycles: 374961893 heartbeat IPC: 0.702444 cumulative IPC: 0.436407 (Simulation time: 49 hr 15 min 40 sec) 
 Total Blocks : 262144 Invalid Blocks : 0
Heartbeat CPU 6 instructions: 330000000 cycles: 397436641 heartbeat IPC: 0.378912 cumulative IPC: 0.437051 (Simulation time: 52 hr 42 min 42 sec) 
 Total Blocks : 262144 Invalid Blocks : 0
Heartbeat CPU 5 instructions: 330000000 cycles: 397458476 heartbeat IPC: 0.378512 cumulative IPC: 0.437017 (Simulation time: 52 hr 42 min 45 sec) 
 Total Blocks : 262144 Invalid Blocks : 0
Heartbeat CPU 1 instructions: 330000000 cycles: 397837143 heartbeat IPC: 0.374349 cumulative IPC: 0.436464 (Simulation time: 52 hr 44 min 27 sec) 
 Total Blocks : 262144 Invalid Blocks : 0
Heartbeat CPU 7 instructions: 330000000 cycles: 397985070 heartbeat IPC: 0.372663 cumulative IPC: 0.436245 (Simulation time: 52 hr 45 min 11 sec) 
 Total Blocks : 262144 Invalid Blocks : 0
Heartbeat CPU 3 instructions: 330000000 cycles: 398254143 heartbeat IPC: 0.370913 cumulative IPC: 0.435853 (Simulation time: 52 hr 46 min 16 sec) 
 Total Blocks : 262144 Invalid Blocks : 0
Heartbeat CPU 2 instructions: 330000000 cycles: 401606498 heartbeat IPC: 0.358981 cumulative IPC: 0.431008 (Simulation time: 52 hr 52 min 25 sec) 
 Total Blocks : 262144 Invalid Blocks : 0
Heartbeat CPU 4 instructions: 330000000 cycles: 401632480 heartbeat IPC: 0.358944 cumulative IPC: 0.430972 (Simulation time: 52 hr 52 min 27 sec) 
 Total Blocks : 262144 Invalid Blocks : 0
Heartbeat CPU 0 instructions: 330000000 cycles: 403415378 heartbeat IPC: 0.351451 cumulative IPC: 0.42844 (Simulation time: 52 hr 54 min 34 sec) 
 Total Blocks : 262144 Invalid Blocks : 0
Heartbeat CPU 5 instructions: 340000001 cycles: 422287504 heartbeat IPC: 0.402754 cumulative IPC: 0.434378 (Simulation time: 54 hr 1 min 50 sec) 
 Total Blocks : 262144 Invalid Blocks : 0
Heartbeat CPU 6 instructions: 340000001 cycles: 422302377 heartbeat IPC: 0.40216 cumulative IPC: 0.434359 (Simulation time: 54 hr 2 min 0 sec) 
 Total Blocks : 262144 Invalid Blocks : 0
Heartbeat CPU 1 instructions: 340000001 cycles: 422858754 heartbeat IPC: 0.399655 cumulative IPC: 0.433612 (Simulation time: 54 hr 6 min 51 sec) 
 Total Blocks : 262144 Invalid Blocks : 0
Heartbeat CPU 7 instructions: 340000001 cycles: 422911835 heartbeat IPC: 0.401175 cumulative IPC: 0.433537 (Simulation time: 54 hr 7 min 16 sec) 
 Total Blocks : 262144 Invalid Blocks : 0
Heartbeat CPU 3 instructions: 340000001 cycles: 422969936 heartbeat IPC: 0.4046 cumulative IPC: 0.433461 (Simulation time: 54 hr 7 min 45 sec) 
 Total Blocks : 262144 Invalid Blocks : 0
Heartbeat CPU 2 instructions: 340000001 cycles: 425615697 heartbeat IPC: 0.416507 cumulative IPC: 0.429939 (Simulation time: 54 hr 34 min 13 sec) 
 Total Blocks : 262144 Invalid Blocks : 0
Heartbeat CPU 4 instructions: 340000001 cycles: 425684431 heartbeat IPC: 0.415767 cumulative IPC: 0.429849 (Simulation time: 54 hr 34 min 55 sec) 
 Total Blocks : 262144 Invalid Blocks : 0
Heartbeat CPU 0 instructions: 340000001 cycles: 427600346 heartbeat IPC: 0.41348 cumulative IPC: 0.427336 (Simulation time: 54 hr 54 min 1 sec) 
 Total Blocks : 262144 Invalid Blocks : 0
Heartbeat CPU 5 instructions: 350000000 cycles: 435867230 heartbeat IPC: 0.736392 cumulative IPC: 0.446588 (Simulation time: 56 hr 21 min 34 sec) 
 Total Blocks : 262144 Invalid Blocks : 0
Heartbeat CPU 6 instructions: 350000000 cycles: 435892924 heartbeat IPC: 0.735806 cumulative IPC: 0.446556 (Simulation time: 56 hr 21 min 53 sec) 
 Total Blocks : 262144 Invalid Blocks : 0
Heartbeat CPU 1 instructions: 350000000 cycles: 436371654 heartbeat IPC: 0.740034 cumulative IPC: 0.445921 (Simulation time: 56 hr 27 min 13 sec) 
 Total Blocks : 262144 Invalid Blocks : 0
Heartbeat CPU 7 instructions: 350000000 cycles: 436391331 heartbeat IPC: 0.741867 cumulative IPC: 0.445892 (Simulation time: 56 hr 27 min 27 sec) 
 Total Blocks : 262144 Invalid Blocks : 0
Heartbeat CPU 3 instructions: 350000000 cycles: 436539252 heartbeat IPC: 0.736957 cumulative IPC: 0.445698 (Simulation time: 56 hr 28 min 59 sec) 
 Total Blocks : 262144 Invalid Blocks : 0
Heartbeat CPU 4 instructions: 350000000 cycles: 439111430 heartbeat IPC: 0.744768 cumulative IPC: 0.442318 (Simulation time: 56 hr 59 min 50 sec) 
 Total Blocks : 262144 Invalid Blocks : 0
Heartbeat CPU 2 instructions: 350000000 cycles: 439115211 heartbeat IPC: 0.740767 cumulative IPC: 0.442312 (Simulation time: 56 hr 59 min 51 sec) 
 Total Blocks : 262144 Invalid Blocks : 0
Heartbeat CPU 0 instructions: 350000000 cycles: 441994893 heartbeat IPC: 0.694707 cumulative IPC: 0.438589 (Simulation time: 57 hr 31 min 51 sec) 
 Total Blocks : 262144 Invalid Blocks : 0
Heartbeat CPU 5 instructions: 360000000 cycles: 470381074 heartbeat IPC: 0.289739 cumulative IPC: 0.431973 (Simulation time: 59 hr 49 min 9 sec) 
 Total Blocks : 262144 Invalid Blocks : 0
Heartbeat CPU 6 instructions: 360000000 cycles: 470489469 heartbeat IPC: 0.289046 cumulative IPC: 0.431848 (Simulation time: 59 hr 49 min 17 sec) 
 Total Blocks : 262144 Invalid Blocks : 0
Heartbeat CPU 7 instructions: 360000000 cycles: 471258242 heartbeat IPC: 0.286805 cumulative IPC: 0.430952 (Simulation time: 59 hr 50 min 13 sec) 
 Total Blocks : 262144 Invalid Blocks : 0
Heartbeat CPU 1 instructions: 360000000 cycles: 471337719 heartbeat IPC: 0.285992 cumulative IPC: 0.430862 (Simulation time: 59 hr 50 min 18 sec) 
 Total Blocks : 262144 Invalid Blocks : 0
Heartbeat CPU 3 instructions: 360000000 cycles: 471706271 heartbeat IPC: 0.284357 cumulative IPC: 0.430434 (Simulation time: 59 hr 50 min 45 sec) 
 Total Blocks : 262144 Invalid Blocks : 0
Heartbeat CPU 4 instructions: 360000000 cycles: 475595183 heartbeat IPC: 0.274095 cumulative IPC: 0.425978 (Simulation time: 60 hr 6 min 48 sec) 
 Total Blocks : 262144 Invalid Blocks : 0
Heartbeat CPU 2 instructions: 360000000 cycles: 475880395 heartbeat IPC: 0.271996 cumulative IPC: 0.425654 (Simulation time: 60 hr 8 min 24 sec) 
 Total Blocks : 262144 Invalid Blocks : 0
Heartbeat CPU 0 instructions: 360000000 cycles: 479098132 heartbeat IPC: 0.269518 cumulative IPC: 0.422042 (Simulation time: 60 hr 30 min 17 sec) 
 Total Blocks : 262144 Invalid Blocks : 0
Heartbeat CPU 5 instructions: 370000002 cycles: 487180578 heartbeat IPC: 0.595256 cumulative IPC: 0.439057 (Simulation time: 61 hr 44 min 24 sec) 
 Total Blocks : 262144 Invalid Blocks : 0
Heartbeat CPU 6 instructions: 370000002 cycles: 487240857 heartbeat IPC: 0.596966 cumulative IPC: 0.43899 (Simulation time: 61 hr 44 min 57 sec) 
 Total Blocks : 262144 Invalid Blocks : 0
Heartbeat CPU 7 instructions: 370000000 cycles: 487945217 heartbeat IPC: 0.59927 cumulative IPC: 0.438192 (Simulation time: 61 hr 51 min 11 sec) 
 Total Blocks : 262144 Invalid Blocks : 0
Heartbeat CPU 1 instructions: 370000000 cycles: 488124838 heartbeat IPC: 0.595695 cumulative IPC: 0.437991 (Simulation time: 61 hr 52 min 48 sec) 
 Total Blocks : 262144 Invalid Blocks : 0
Heartbeat CPU 3 instructions: 370000002 cycles: 488301143 heartbeat IPC: 0.602596 cumulative IPC: 0.437791 (Simulation time: 61 hr 54 min 19 sec) 
 Total Blocks : 262144 Invalid Blocks : 0
Heartbeat CPU 4 instructions: 370000000 cycles: 491181593 heartbeat IPC: 0.641585 cumulative IPC: 0.434568 (Simulation time: 62 hr 22 min 27 sec) 
 Total Blocks : 262144 Invalid Blocks : 0
Heartbeat CPU 2 instructions: 370000002 cycles: 491348163 heartbeat IPC: 0.646506 cumulative IPC: 0.434382 (Simulation time: 62 hr 24 min 15 sec) 
 Total Blocks : 262144 Invalid Blocks : 0
Heartbeat CPU 0 instructions: 370000000 cycles: 493803414 heartbeat IPC: 0.680028 cumulative IPC: 0.431676 (Simulation time: 62 hr 52 min 18 sec) 
 Total Blocks : 262144 Invalid Blocks : 0
Heartbeat CPU 5 instructions: 380000000 cycles: 510140496 heartbeat IPC: 0.435542 cumulative IPC: 0.438861 (Simulation time: 65 hr 20 min 9 sec) 
 Total Blocks : 262144 Invalid Blocks : 0
Heartbeat CPU 6 instructions: 380000000 cycles: 510350441 heartbeat IPC: 0.432721 cumulative IPC: 0.438637 (Simulation time: 65 hr 21 min 35 sec) 
 Total Blocks : 262144 Invalid Blocks : 0
Heartbeat CPU 7 instructions: 380000000 cycles: 511667026 heartbeat IPC: 0.421553 cumulative IPC: 0.437233 (Simulation time: 65 hr 30 min 11 sec) 
 Total Blocks : 262144 Invalid Blocks : 0
Heartbeat CPU 1 instructions: 380000000 cycles: 512087005 heartbeat IPC: 0.417325 cumulative IPC: 0.436789 (Simulation time: 65 hr 32 min 28 sec) 
 Total Blocks : 262144 Invalid Blocks : 0
Heartbeat CPU 3 instructions: 380000000 cycles: 512265770 heartbeat IPC: 0.417282 cumulative IPC: 0.436599 (Simulation time: 65 hr 33 min 12 sec) 
 Total Blocks : 262144 Invalid Blocks : 0
Heartbeat CPU 4 instructions: 380000000 cycles: 516939367 heartbeat IPC: 0.388232 cumulative IPC: 0.431706 (Simulation time: 65 hr 51 min 17 sec) 
 Total Blocks : 262144 Invalid Blocks : 0
Heartbeat CPU 2 instructions: 380000000 cycles: 517255849 heartbeat IPC: 0.385986 cumulative IPC: 0.431378 (Simulation time: 65 hr 52 min 1 sec) 
 Total Blocks : 262144 Invalid Blocks : 0
Heartbeat CPU 0 instructions: 380000000 cycles: 521252502 heartbeat IPC: 0.364311 cumulative IPC: 0.427286 (Simulation time: 65 hr 59 min 9 sec) 
 Total Blocks : 262144 Invalid Blocks : 0
Heartbeat CPU 5 instructions: 390000000 cycles: 537495477 heartbeat IPC: 0.365564 cumulative IPC: 0.434278 (Simulation time: 66 hr 33 min 36 sec) 
 Total Blocks : 262144 Invalid Blocks : 0
Heartbeat CPU 6 instructions: 390000000 cycles: 537646884 heartbeat IPC: 0.366348 cumulative IPC: 0.434129 (Simulation time: 66 hr 34 min 31 sec) 
 Total Blocks : 262144 Invalid Blocks : 0
Heartbeat CPU 7 instructions: 390000000 cycles: 538673579 heartbeat IPC: 0.370281 cumulative IPC: 0.433111 (Simulation time: 66 hr 41 min 13 sec) 
 Total Blocks : 262144 Invalid Blocks : 0
Heartbeat CPU 1 instructions: 390000000 cycles: 539006889 heartbeat IPC: 0.371473 cumulative IPC: 0.432784 (Simulation time: 66 hr 43 min 26 sec) 
 Total Blocks : 262144 Invalid Blocks : 0
Heartbeat CPU 3 instructions: 390000000 cycles: 539207188 heartbeat IPC: 0.371176 cumulative IPC: 0.432586 (Simulation time: 66 hr 44 min 49 sec) 
 Total Blocks : 262144 Invalid Blocks : 0
Heartbeat CPU 4 instructions: 390000000 cycles: 542999208 heartbeat IPC: 0.383732 cumulative IPC: 0.428884 (Simulation time: 67 hr 13 min 57 sec) 
 Total Blocks : 262144 Invalid Blocks : 0
Heartbeat CPU 2 instructions: 390000000 cycles: 543477660 heartbeat IPC: 0.381362 cumulative IPC: 0.42842 (Simulation time: 67 hr 18 min 4 sec) 
 Total Blocks : 262144 Invalid Blocks : 0
Heartbeat CPU 0 instructions: 390000000 cycles: 546553460 heartbeat IPC: 0.395242 cumulative IPC: 0.425471 (Simulation time: 67 hr 45 min 32 sec) 
 Total Blocks : 262144 Invalid Blocks : 0
Heartbeat CPU 5 instructions: 400000002 cycles: 551542204 heartbeat IPC: 0.71191 cumulative IPC: 0.442914 (Simulation time: 68 hr 31 min 45 sec) 
 Total Blocks : 262144 Invalid Blocks : 0
Finished CPU 5 instructions: 200000002 cycles: 451553386 cumulative IPC: 0.442916 (Simulation time: 68 hr 31 min 45 sec) 
Heartbeat CPU 6 instructions: 400000002 cycles: 551563040 heartbeat IPC: 0.718589 cumulative IPC: 0.442895 (Simulation time: 68 hr 31 min 57 sec) 
 Total Blocks : 262144 Invalid Blocks : 0
Finished CPU 6 instructions: 200000000 cycles: 451573944 cumulative IPC: 0.442895 (Simulation time: 68 hr 31 min 57 sec) 
Heartbeat CPU 7 instructions: 400000002 cycles: 552397697 heartbeat IPC: 0.728644 cumulative IPC: 0.442076 (Simulation time: 68 hr 39 min 34 sec) 
 Total Blocks : 262144 Invalid Blocks : 0
Finished CPU 7 instructions: 200000002 cycles: 452410209 cumulative IPC: 0.442077 (Simulation time: 68 hr 39 min 34 sec) 
Heartbeat CPU 1 instructions: 400000000 cycles: 552774743 heartbeat IPC: 0.72633 cumulative IPC: 0.44171 (Simulation time: 68 hr 43 min 6 sec) 
 Total Blocks : 262144 Invalid Blocks : 0
Finished CPU 1 instructions: 200000001 cycles: 452785531 cumulative IPC: 0.44171 (Simulation time: 68 hr 43 min 6 sec) 
Heartbeat CPU 3 instructions: 400000002 cycles: 552947221 heartbeat IPC: 0.7278 cumulative IPC: 0.441541 (Simulation time: 68 hr 44 min 44 sec) 
 Total Blocks : 262144 Invalid Blocks : 0
Finished CPU 3 instructions: 200000002 cycles: 452958392 cumulative IPC: 0.441542 (Simulation time: 68 hr 44 min 44 sec) 
Heartbeat CPU 4 instructions: 400000002 cycles: 556377816 heartbeat IPC: 0.747462 cumulative IPC: 0.438222 (Simulation time: 69 hr 19 min 53 sec) 
 Total Blocks : 262144 Invalid Blocks : 0
Finished CPU 4 instructions: 200000001 cycles: 456388727 cumulative IPC: 0.438223 (Simulation time: 69 hr 19 min 53 sec) 
Heartbeat CPU 2 instructions: 400000000 cycles: 556944528 heartbeat IPC: 0.742563 cumulative IPC: 0.437678 (Simulation time: 69 hr 26 min 17 sec) 
 Total Blocks : 262144 Invalid Blocks : 0
Finished CPU 2 instructions: 200000001 cycles: 456956050 cumulative IPC: 0.437679 (Simulation time: 69 hr 26 min 18 sec) 
Heartbeat CPU 0 instructions: 400000000 cycles: 561149258 heartbeat IPC: 0.685129 cumulative IPC: 0.433689 (Simulation time: 70 hr 7 min 8 sec) 
 Total Blocks : 262144 Invalid Blocks : 0
Finished CPU 0 instructions: 200000000 cycles: 461160002 cumulative IPC: 0.433689 (Simulation time: 70 hr 7 min 8 sec) 

CPU 0 Branch Prediction Accuracy: 99.8844% MPKI: 0.060205 Average ROB Occupancy at Mispredict: 346.489

CPU 1 Branch Prediction Accuracy: 99.8833% MPKI: 0.0605364 Average ROB Occupancy at Mispredict: 346.561

CPU 2 Branch Prediction Accuracy: 99.8842% MPKI: 0.0598762 Average ROB Occupancy at Mispredict: 346.505

CPU 3 Branch Prediction Accuracy: 99.8834% MPKI: 0.0605153 Average ROB Occupancy at Mispredict: 346.549

CPU 4 Branch Prediction Accuracy: 99.884% MPKI: 0.0599562 Average ROB Occupancy at Mispredict: 346.484

CPU 5 Branch Prediction Accuracy: 99.8831% MPKI: 0.060746 Average ROB Occupancy at Mispredict: 346.588

CPU 6 Branch Prediction Accuracy: 99.8831% MPKI: 0.0607527 Average ROB Occupancy at Mispredict: 346.586

CPU 7 Branch Prediction Accuracy: 99.8832% MPKI: 0.0606115 Average ROB Occupancy at Mispredict: 346.582

ChampSim completed all CPUs

Total Simulation Statistics (not including warmup)

CPU 0 cumulative IPC: 0.433689 instructions: 200000000 cycles: 461160002
ITLB TOTAL     ACCESS: 36978486  HIT: 36978486  MISS:     0  HIT %:   100  MISS %:     0  AVERAGE MISS PENALTY: 0
ITLB LOAD      ACCESS: 36978486  HIT: 36978486  MISS:     0  HIT %:   100  MISS %:     0  AVERAGE MISS PENALTY: 0
ITLB RFO       ACCESS:     0  HIT:     0  MISS:     0  HIT %:     0  MISS %:     0  AVERAGE MISS PENALTY: 0
ITLB PREFETCH  ACCESS:     0  HIT:     0  MISS:     0  HIT %:     0  MISS %:     0  AVERAGE MISS PENALTY: 0
ITLB WRITEBACK ACCESS:     0  HIT:     0  MISS:     0  HIT %:     0  MISS %:     0  AVERAGE MISS PENALTY: 0

DTLB TOTAL     ACCESS: 60602687  HIT: 60493196  MISS: 109491  HIT %: 99.8193  MISS %: 0.18067  AVERAGE MISS PENALTY: 128.747
DTLB LOAD      ACCESS: 52307060  HIT: 52223973  MISS: 83087  HIT %: 99.8412  MISS %: 0.158845  AVERAGE MISS PENALTY: 137.726
DTLB RFO       ACCESS: 8295627  HIT: 8269223  MISS: 26404  HIT %: 99.6817  MISS %: 0.318288  AVERAGE MISS PENALTY: 100.491
DTLB PREFETCH  ACCESS:     0  HIT:     0  MISS:     0  HIT %:     0  MISS %:     0  AVERAGE MISS PENALTY: 0
DTLB WRITEBACK ACCESS:     0  HIT:     0  MISS:     0  HIT %:     0  MISS %:     0  AVERAGE MISS PENALTY: 0

STLB TOTAL     ACCESS: 109491  HIT: 17538  MISS: 91953  HIT %: 16.0178  MISS %: 83.9822  AVERAGE MISS PENALTY: 100
STLB LOAD      ACCESS: 83087  HIT: 15156  MISS: 67931  HIT %: 18.2411  MISS %: 81.7589  AVERAGE MISS PENALTY: 100
STLB RFO       ACCESS: 26404  HIT:  2382  MISS: 24022  HIT %: 9.02136  MISS %: 90.9786  AVERAGE MISS PENALTY: 100
STLB PREFETCH  ACCESS:     0  HIT:     0  MISS:     0  HIT %:     0  MISS %:     0  AVERAGE MISS PENALTY: 0
STLB WRITEBACK ACCESS:     0  HIT:     0  MISS:     0  HIT %:     0  MISS %:     0  AVERAGE MISS PENALTY: 0

L1D TOTAL     ACCESS: 59636725  HIT: 53862788  MISS: 5773937  HIT %: 90.3182  MISS %: 9.68185  AVERAGE MISS PENALTY: 3.06082e+07
L1D LOAD      ACCESS: 48319511  HIT: 47632152  MISS: 687359  HIT %: 98.5775  MISS %: 1.42253  AVERAGE MISS PENALTY: 2.57111e+08
L1D RFO       ACCESS: 2086329  HIT: 803864  MISS: 1282465  HIT %: 38.5301  MISS %: 61.4699  AVERAGE MISS PENALTY: 1149.83
L1D PREFETCH  ACCESS: 9230885  HIT: 5426772  MISS: 3804113  HIT %: 58.7893  MISS %: 41.2107  AVERAGE MISS PENALTY: 245.792
L1D WRITEBACK ACCESS:     0  HIT:     0  MISS:     0  HIT %:     0  MISS %:     0  AVERAGE MISS PENALTY: 0

L1I TOTAL     ACCESS: 51342041  HIT: 51342019  MISS:    22  HIT %:   100  MISS %: 4.28499e-05  AVERAGE MISS PENALTY: 757.136
L1I LOAD      ACCESS: 51342041  HIT: 51342019  MISS:    22  HIT %:   100  MISS %: 4.28499e-05  AVERAGE MISS PENALTY: 757.136
L1I RFO       ACCESS:     0  HIT:     0  MISS:     0  HIT %:     0  MISS %:     0  AVERAGE MISS PENALTY: 0
L1I PREFETCH  ACCESS:     0  HIT:     0  MISS:     0  HIT %:     0  MISS %:     0  AVERAGE MISS PENALTY: 0
L1I WRITEBACK ACCESS:     0  HIT:     0  MISS:     0  HIT %:     0  MISS %:     0  AVERAGE MISS PENALTY: 0

L2C TOTAL     ACCESS: 11452488  HIT: 7238423  MISS: 4214065  HIT %: 63.2039  MISS %: 36.7961  AVERAGE MISS PENALTY: 4.11699e+07
L2C LOAD      ACCESS: 676131  HIT: 74087  MISS: 602044  HIT %: 10.9575  MISS %: 89.0425  AVERAGE MISS PENALTY: 2.88167e+08
L2C RFO       ACCESS: 1282465  HIT:    12  MISS: 1282453  HIT %: 0.000935698  MISS %: 99.9991  AVERAGE MISS PENALTY: 1134.32
L2C PREFETCH  ACCESS: 8203067  HIT: 5873522  MISS: 2329545  HIT %: 71.6015  MISS %: 28.3985  AVERAGE MISS PENALTY: 965.948
L2C WRITEBACK ACCESS: 1290825  HIT: 1290802  MISS:    23  HIT %: 99.9982  MISS %: 0.00178181  AVERAGE MISS PENALTY: 0


LLC0 TOTAL     ACCESS: 686424  HIT: 142197  MISS: 544227  HIT %: 20.7156  MISS %: 79.2844  AVERAGE MISS PENALTY: 1018.53
LLC0 LOAD      ACCESS: 47989  HIT:   202  MISS: 47787  HIT %: 0.42093  MISS %: 99.5791  AVERAGE MISS PENALTY: 932.525
LLC0 RFO       ACCESS: 160311  HIT:     7  MISS: 160304  HIT %: 0.00436651  MISS %: 99.9956  AVERAGE MISS PENALTY: 1115.15
LLC0 PREFETCH  ACCESS: 317488  HIT:  1297  MISS: 316191  HIT %: 0.408519  MISS %: 99.5915  AVERAGE MISS PENALTY: 1046.79
LLC0 WRITEBACK ACCESS: 160636  HIT: 140691  MISS: 19945  HIT %: 87.5837  MISS %: 12.4163  AVERAGE MISS PENALTY: 0

LLC1 TOTAL     ACCESS: 686793  HIT: 142158  MISS: 544635  HIT %: 20.6988  MISS %: 79.3012  AVERAGE MISS PENALTY: 1015.44
LLC1 LOAD      ACCESS:  6346  HIT:     2  MISS:  6344  HIT %: 0.0315159  MISS %: 99.9685  AVERAGE MISS PENALTY: 1238.93
LLC1 RFO       ACCESS: 160304  HIT:     5  MISS: 160299  HIT %: 0.00311907  MISS %: 99.9969  AVERAGE MISS PENALTY: 1112.08
LLC1 PREFETCH  ACCESS: 359505  HIT:  1509  MISS: 357996  HIT %: 0.419744  MISS %: 99.5803  AVERAGE MISS PENALTY: 1024.93
LLC1 WRITEBACK ACCESS: 160638  HIT: 140642  MISS: 19996  HIT %: 87.5521  MISS %: 12.4479  AVERAGE MISS PENALTY: 0

LLC2 TOTAL     ACCESS: 687222  HIT: 142310  MISS: 544912  HIT %: 20.708  MISS %: 79.292  AVERAGE MISS PENALTY: 1028
LLC2 LOAD      ACCESS:  3952  HIT:     0  MISS:  3952  HIT %:     0  MISS %:   100  AVERAGE MISS PENALTY: 1147.2
LLC2 RFO       ACCESS: 160312  HIT:    13  MISS: 160299  HIT %: 0.00810919  MISS %: 99.9919  AVERAGE MISS PENALTY: 1050.37
LLC2 PREFETCH  ACCESS: 362308  HIT:  1512  MISS: 360796  HIT %: 0.417324  MISS %: 99.5827  AVERAGE MISS PENALTY: 1073.35
LLC2 WRITEBACK ACCESS: 160650  HIT: 140785  MISS: 19865  HIT %: 87.6346  MISS %: 12.3654  AVERAGE MISS PENALTY: 0

LLC3 TOTAL     ACCESS: 687571  HIT: 142145  MISS: 545426  HIT %: 20.6735  MISS %: 79.3265  AVERAGE MISS PENALTY: 1033.74
LLC3 LOAD      ACCESS:  4023  HIT:     1  MISS:  4022  HIT %: 0.0248571  MISS %: 99.9751  AVERAGE MISS PENALTY: 1140.61
LLC3 RFO       ACCESS: 160304  HIT:    14  MISS: 160290  HIT %: 0.00873341  MISS %: 99.9913  AVERAGE MISS PENALTY: 1058.3
LLC3 PREFETCH  ACCESS: 362601  HIT:  1425  MISS: 361176  HIT %: 0.392994  MISS %: 99.607  AVERAGE MISS PENALTY: 1078.72
LLC3 WRITEBACK ACCESS: 160643  HIT: 140705  MISS: 19938  HIT %: 87.5886  MISS %: 12.4114  AVERAGE MISS PENALTY: 0

LLC4 TOTAL     ACCESS: 687855  HIT: 142152  MISS: 545703  HIT %: 20.666  MISS %: 79.334  AVERAGE MISS PENALTY: 1052.76
LLC4 LOAD      ACCESS:  4010  HIT:     0  MISS:  4010  HIT %:     0  MISS %:   100  AVERAGE MISS PENALTY: 1290.68
LLC4 RFO       ACCESS: 160303  HIT:     8  MISS: 160295  HIT %: 0.00499055  MISS %: 99.995  AVERAGE MISS PENALTY: 1139.48
LLC4 PREFETCH  ACCESS: 362898  HIT:  1494  MISS: 361404  HIT %: 0.411686  MISS %: 99.5883  AVERAGE MISS PENALTY: 1069.9
LLC4 WRITEBACK ACCESS: 160644  HIT: 140650  MISS: 19994  HIT %: 87.5538  MISS %: 12.4462  AVERAGE MISS PENALTY: 0

LLC5 TOTAL     ACCESS: 687770  HIT: 141955  MISS: 545815  HIT %: 20.6399  MISS %: 79.3601  AVERAGE MISS PENALTY: 1036.2
LLC5 LOAD      ACCESS:  4000  HIT:     1  MISS:  3999  HIT %: 0.025  MISS %: 99.975  AVERAGE MISS PENALTY: 1239.46
LLC5 RFO       ACCESS: 160304  HIT:     6  MISS: 160298  HIT %: 0.00374289  MISS %: 99.9963  AVERAGE MISS PENALTY: 1130.65
LLC5 PREFETCH  ACCESS: 362831  HIT:  1510  MISS: 361321  HIT %: 0.416172  MISS %: 99.5838  AVERAGE MISS PENALTY: 1049.97
LLC5 WRITEBACK ACCESS: 160635  HIT: 140438  MISS: 20197  HIT %: 87.4268  MISS %: 12.5732  AVERAGE MISS PENALTY: 0

LLC6 TOTAL     ACCESS: 687835  HIT: 142095  MISS: 545740  HIT %: 20.6583  MISS %: 79.3417  AVERAGE MISS PENALTY: 1054.5
LLC6 LOAD      ACCESS:  4020  HIT:     2  MISS:  4018  HIT %: 0.0497512  MISS %: 99.9502  AVERAGE MISS PENALTY: 1158.5
LLC6 RFO       ACCESS: 160312  HIT:     7  MISS: 160305  HIT %: 0.00436649  MISS %: 99.9956  AVERAGE MISS PENALTY: 1074.66
LLC6 PREFETCH  ACCESS: 362861  HIT:  1475  MISS: 361386  HIT %: 0.406492  MISS %: 99.5935  AVERAGE MISS PENALTY: 1102.86
LLC6 WRITEBACK ACCESS: 160642  HIT: 140611  MISS: 20031  HIT %: 87.5307  MISS %: 12.4693  AVERAGE MISS PENALTY: 0

LLC7 TOTAL     ACCESS: 687696  HIT: 142141  MISS: 545555  HIT %: 20.6692  MISS %: 79.3308  AVERAGE MISS PENALTY: 1046.17
LLC7 LOAD      ACCESS:  3981  HIT:     1  MISS:  3980  HIT %: 0.0251193  MISS %: 99.9749  AVERAGE MISS PENALTY: 1188.98
LLC7 RFO       ACCESS: 160303  HIT:    11  MISS: 160292  HIT %: 0.00686201  MISS %: 99.9931  AVERAGE MISS PENALTY: 1070.34
LLC7 PREFETCH  ACCESS: 362776  HIT:  1431  MISS: 361345  HIT %: 0.394458  MISS %: 99.6055  AVERAGE MISS PENALTY: 1091.61
LLC7 WRITEBACK ACCESS: 160636  HIT: 140698  MISS: 19938  HIT %: 87.5881  MISS %: 12.4119  AVERAGE MISS PENALTY: 0

Total Rob stall cycles : 	417057765
Total Load Rob Stall cycles : 	357246050
Average Rob Stall cycles : 	 20
Average Load Rob Stall cycles : 	 59

CPU 1 cumulative IPC: 0.441595 instructions: 203646127 cycles: 461160003
ITLB TOTAL     ACCESS: 37583609  HIT: 37583609  MISS:     0  HIT %:   100  MISS %:     0  AVERAGE MISS PENALTY: 0
ITLB LOAD      ACCESS: 37583609  HIT: 37583609  MISS:     0  HIT %:   100  MISS %:     0  AVERAGE MISS PENALTY: 0
ITLB RFO       ACCESS:     0  HIT:     0  MISS:     0  HIT %:     0  MISS %:     0  AVERAGE MISS PENALTY: 0
ITLB PREFETCH  ACCESS:     0  HIT:     0  MISS:     0  HIT %:     0  MISS %:     0  AVERAGE MISS PENALTY: 0
ITLB WRITEBACK ACCESS:     0  HIT:     0  MISS:     0  HIT %:     0  MISS %:     0  AVERAGE MISS PENALTY: 0

DTLB TOTAL     ACCESS: 61721327  HIT: 61609578  MISS: 111749  HIT %: 99.8189  MISS %: 0.181054  AVERAGE MISS PENALTY: 129.436
DTLB LOAD      ACCESS: 53253869  HIT: 53169102  MISS: 84767  HIT %: 99.8408  MISS %: 0.159175  AVERAGE MISS PENALTY: 138.612
DTLB RFO       ACCESS: 8467458  HIT: 8440476  MISS: 26982  HIT %: 99.6813  MISS %: 0.318655  AVERAGE MISS PENALTY: 100.607
DTLB PREFETCH  ACCESS:     0  HIT:     0  MISS:     0  HIT %:     0  MISS %:     0  AVERAGE MISS PENALTY: 0
DTLB WRITEBACK ACCESS:     0  HIT:     0  MISS:     0  HIT %:     0  MISS %:     0  AVERAGE MISS PENALTY: 0

STLB TOTAL     ACCESS: 111749  HIT: 17549  MISS: 94200  HIT %: 15.7039  MISS %: 84.2961  AVERAGE MISS PENALTY: 100
STLB LOAD      ACCESS: 84767  HIT: 15167  MISS: 69600  HIT %: 17.8926  MISS %: 82.1074  AVERAGE MISS PENALTY: 100
STLB RFO       ACCESS: 26982  HIT:  2382  MISS: 24600  HIT %: 8.82811  MISS %: 91.1719  AVERAGE MISS PENALTY: 100
STLB PREFETCH  ACCESS:     0  HIT:     0  MISS:     0  HIT %:     0  MISS %:     0  AVERAGE MISS PENALTY: 0
STLB WRITEBACK ACCESS:     0  HIT:     0  MISS:     0  HIT %:     0  MISS %:     0  AVERAGE MISS PENALTY: 0

L1D TOTAL     ACCESS: 60677821  HIT: 54780285  MISS: 5897536  HIT %: 90.2806  MISS %: 9.71943  AVERAGE MISS PENALTY: 3.12854e+07
L1D LOAD      ACCESS: 49125892  HIT: 48416546  MISS: 709346  HIT %: 98.5561  MISS %: 1.44394  AVERAGE MISS PENALTY: 2.60104e+08
L1D RFO       ACCESS: 2127832  HIT: 813042  MISS: 1314790  HIT %: 38.2099  MISS %: 61.7901  AVERAGE MISS PENALTY: 1124.33
L1D PREFETCH  ACCESS: 9424097  HIT: 5550697  MISS: 3873400  HIT %: 58.899  MISS %: 41.101  AVERAGE MISS PENALTY: 241.031
L1D WRITEBACK ACCESS:     0  HIT:     0  MISS:     0  HIT %:     0  MISS %:     0  AVERAGE MISS PENALTY: 0

L1I TOTAL     ACCESS: 52100653  HIT: 52100631  MISS:    22  HIT %:   100  MISS %: 4.2226e-05  AVERAGE MISS PENALTY: 1123.59
L1I LOAD      ACCESS: 52100653  HIT: 52100631  MISS:    22  HIT %:   100  MISS %: 4.2226e-05  AVERAGE MISS PENALTY: 1123.59
L1I RFO       ACCESS:     0  HIT:     0  MISS:     0  HIT %:     0  MISS %:     0  AVERAGE MISS PENALTY: 0
L1I PREFETCH  ACCESS:     0  HIT:     0  MISS:     0  HIT %:     0  MISS %:     0  AVERAGE MISS PENALTY: 0
L1I WRITEBACK ACCESS:     0  HIT:     0  MISS:     0  HIT %:     0  MISS %:     0  AVERAGE MISS PENALTY: 0

L2C TOTAL     ACCESS: 11690094  HIT: 7376479  MISS: 4313615  HIT %: 63.1003  MISS %: 36.8997  AVERAGE MISS PENALTY: 4.19896e+07
L2C LOAD      ACCESS: 697312  HIT: 75685  MISS: 621627  HIT %: 10.8538  MISS %: 89.1462  AVERAGE MISS PENALTY: 2.9137e+08
L2C RFO       ACCESS: 1314790  HIT:     1  MISS: 1314789  HIT %: 7.60578e-05  MISS %: 99.9999  AVERAGE MISS PENALTY: 1108.79
L2C PREFETCH  ACCESS: 8354983  HIT: 5977836  MISS: 2377147  HIT %: 71.5482  MISS %: 28.4518  AVERAGE MISS PENALTY: 951.542
L2C WRITEBACK ACCESS: 1323009  HIT: 1322957  MISS:    52  HIT %: 99.9961  MISS %: 0.00393043  AVERAGE MISS PENALTY: 0


LLC0 TOTAL     ACCESS: 702892  HIT: 144764  MISS: 558128  HIT %: 20.5955  MISS %: 79.4045  AVERAGE MISS PENALTY: 993.429
LLC0 LOAD      ACCESS: 49218  HIT:   185  MISS: 49033  HIT %: 0.375879  MISS %: 99.6241  AVERAGE MISS PENALTY: 909.032
LLC0 RFO       ACCESS: 164352  HIT:     4  MISS: 164348  HIT %: 0.0024338  MISS %: 99.9976  AVERAGE MISS PENALTY: 1086.71
LLC0 PREFETCH  ACCESS: 324598  HIT:  1323  MISS: 323275  HIT %: 0.407581  MISS %: 99.5924  AVERAGE MISS PENALTY: 1024.79
LLC0 WRITEBACK ACCESS: 164724  HIT: 143252  MISS: 21472  HIT %: 86.9649  MISS %: 13.0351  AVERAGE MISS PENALTY: 0

LLC1 TOTAL     ACCESS: 703328  HIT: 144701  MISS: 558627  HIT %: 20.5738  MISS %: 79.4262  AVERAGE MISS PENALTY: 991.589
LLC1 LOAD      ACCESS:  6683  HIT:    11  MISS:  6672  HIT %: 0.164597  MISS %: 99.8354  AVERAGE MISS PENALTY: 1207.09
LLC1 RFO       ACCESS: 164346  HIT:     2  MISS: 164344  HIT %: 0.00121694  MISS %: 99.9988  AVERAGE MISS PENALTY: 1086.18
LLC1 PREFETCH  ACCESS: 367580  HIT:  1511  MISS: 366069  HIT %: 0.411067  MISS %: 99.5889  AVERAGE MISS PENALTY: 1003.55
LLC1 WRITEBACK ACCESS: 164719  HIT: 143177  MISS: 21542  HIT %: 86.922  MISS %: 13.078  AVERAGE MISS PENALTY: 0

LLC2 TOTAL     ACCESS: 703720  HIT: 144865  MISS: 558855  HIT %: 20.5856  MISS %: 79.4144  AVERAGE MISS PENALTY: 1010.05
LLC2 LOAD      ACCESS:  4153  HIT:     0  MISS:  4153  HIT %:     0  MISS %:   100  AVERAGE MISS PENALTY: 1149.45
LLC2 RFO       ACCESS: 164356  HIT:     7  MISS: 164349  HIT %: 0.00425905  MISS %: 99.9957  AVERAGE MISS PENALTY: 1031.13
LLC2 PREFETCH  ACCESS: 370486  HIT:  1481  MISS: 369005  HIT %: 0.399745  MISS %: 99.6003  AVERAGE MISS PENALTY: 1057.53
LLC2 WRITEBACK ACCESS: 164725  HIT: 143377  MISS: 21348  HIT %: 87.0402  MISS %: 12.9598  AVERAGE MISS PENALTY: 0

LLC3 TOTAL     ACCESS: 704059  HIT: 144689  MISS: 559370  HIT %: 20.5507  MISS %: 79.4493  AVERAGE MISS PENALTY: 1011.71
LLC3 LOAD      ACCESS:  4145  HIT:     1  MISS:  4144  HIT %: 0.0241255  MISS %: 99.9759  AVERAGE MISS PENALTY: 1140.99
LLC3 RFO       ACCESS: 164346  HIT:     4  MISS: 164342  HIT %: 0.00243389  MISS %: 99.9976  AVERAGE MISS PENALTY: 1033.46
[...]
LLC2 LOAD      ACCESS:  3986  HIT:     0  MISS:  3986  HIT %:     0  MISS %:   100  AVERAGE MISS PENALTY: 1184.67
LLC2 RFO       ACCESS: 160315  HIT:     3  MISS: 160312  HIT %: 0.00187132  MISS %: 99.9981  AVERAGE MISS PENALTY: 1024.99
LLC2 PREFETCH  ACCESS: 362636  HIT:  1505  MISS: 361131  HIT %: 0.415017  MISS %: 99.585  AVERAGE MISS PENALTY: 1056.2
LLC2 WRITEBACK ACCESS: 160791  HIT: 139796  MISS: 20995  HIT %: 86.9427  MISS %: 13.0573  AVERAGE MISS PENALTY: 0
LLC2 PREFETCH  REQUESTED:     0  ISSUED:     0  USEFUL:    30  USELESS: 2934555
 USEFUL LOAD PREFETCHES:         30 PREFETCH ISSUED TO LOWER LEVEL:   39550907  ACCURACY: 7.58516e-05
 TIMELY PREFETCHES:         30 LATE PREFETCHES: 0 DROPPED PREFETCHES: 0
LLC2 AVERAGE MISS LATENCY: 1007.4 cycles
LLC3 TOTAL     ACCESS: 688160  HIT: 141271  MISS: 546889  HIT %: 20.5288  MISS %: 79.4712  AVERAGE MISS PENALTY: 1012.03
LLC3 LOAD      ACCESS:  4056  HIT:     1  MISS:  4055  HIT %: 0.0246548  MISS %: 99.9753  AVERAGE MISS PENALTY: 1141.83
LLC3 RFO       ACCESS: 160304  HIT:     4  MISS: 160300  HIT %: 0.00249526  MISS %: 99.9975  AVERAGE MISS PENALTY: 1030.73
LLC3 PREFETCH  ACCESS: 363015  HIT:  1455  MISS: 361560  HIT %: 0.40081  MISS %: 99.5992  AVERAGE MISS PENALTY: 1060.98
LLC3 WRITEBACK ACCESS: 160785  HIT: 139811  MISS: 20974  HIT %: 86.9553  MISS %: 13.0447  AVERAGE MISS PENALTY: 0
LLC3 PREFETCH  REQUESTED:     0  ISSUED:     0  USEFUL:    23  USELESS: 2937375
 USEFUL LOAD PREFETCHES:         23 PREFETCH ISSUED TO LOWER LEVEL:   38761494  ACCURACY: 5.93372e-05
 TIMELY PREFETCHES:         23 LATE PREFETCHES: 0 DROPPED PREFETCHES: 0
LLC3 AVERAGE MISS LATENCY: 1012.03 cycles
LLC4 TOTAL     ACCESS: 688415  HIT: 141357  MISS: 547058  HIT %: 20.5337  MISS %: 79.4663  AVERAGE MISS PENALTY: 1205.71
LLC4 LOAD      ACCESS:  4026  HIT:     1  MISS:  4025  HIT %: 0.0248385  MISS %: 99.9752  AVERAGE MISS PENALTY: 1249.04
LLC4 RFO       ACCESS: 160303  HIT:     1  MISS: 160302  HIT %: 0.000623819  MISS %: 99.9994  AVERAGE MISS PENALTY: 1100.66
LLC4 PREFETCH  ACCESS: 363303  HIT:  1492  MISS: 361811  HIT %: 0.410676  MISS %: 99.5893  AVERAGE MISS PENALTY: 1321.48
LLC4 WRITEBACK ACCESS: 160783  HIT: 139863  MISS: 20920  HIT %: 86.9887  MISS %: 13.0113  AVERAGE MISS PENALTY: 0
LLC4 PREFETCH  REQUESTED:     0  ISSUED:     0  USEFUL:    19  USELESS: 2939799
 USEFUL LOAD PREFETCHES:         19 PREFETCH ISSUED TO LOWER LEVEL:   46173742  ACCURACY: 4.11489e-05
 TIMELY PREFETCHES:         19 LATE PREFETCHES: 0 DROPPED PREFETCHES: 0
LLC4 AVERAGE MISS LATENCY: 1022.93 cycles
LLC5 TOTAL     ACCESS: 688329  HIT: 141120  MISS: 547209  HIT %: 20.5018  MISS %: 79.4982  AVERAGE MISS PENALTY: 1008.1
LLC5 LOAD      ACCESS:  4027  HIT:     0  MISS:  4027  HIT %:     0  MISS %:   100  AVERAGE MISS PENALTY: 1269.86
LLC5 RFO       ACCESS: 160305  HIT:     3  MISS: 160302  HIT %: 0.00187143  MISS %: 99.9981  AVERAGE MISS PENALTY: 1089.82
LLC5 PREFETCH  ACCESS: 363225  HIT:  1494  MISS: 361731  HIT %: 0.411315  MISS %: 99.5887  AVERAGE MISS PENALTY: 1027.91
LLC5 WRITEBACK ACCESS: 160772  HIT: 139623  MISS: 21149  HIT %: 86.8453  MISS %: 13.1547  AVERAGE MISS PENALTY: 0
LLC5 PREFETCH  REQUESTED:     0  ISSUED:     0  USEFUL:    27  USELESS: 2939591
 USEFUL LOAD PREFETCHES:         27 PREFETCH ISSUED TO LOWER LEVEL:   41083767  ACCURACY: 6.57194e-05
 TIMELY PREFETCHES:         27 LATE PREFETCHES: 0 DROPPED PREFETCHES: 0
LLC5 AVERAGE MISS LATENCY: 1008.1 cycles
LLC6 TOTAL     ACCESS: 688362  HIT: 141263  MISS: 547099  HIT %: 20.5216  MISS %: 79.4784  AVERAGE MISS PENALTY: 1033.34
LLC6 LOAD      ACCESS:  4013  HIT:     6  MISS:  4007  HIT %: 0.149514  MISS %: 99.8505  AVERAGE MISS PENALTY: 1161.66
LLC6 RFO       ACCESS: 160312  HIT:     4  MISS: 160308  HIT %: 0.00249513  MISS %: 99.9975  AVERAGE MISS PENALTY: 1046.87
LLC6 PREFETCH  ACCESS: 363258  HIT:  1464  MISS: 361794  HIT %: 0.403019  MISS %: 99.597  AVERAGE MISS PENALTY: 1085.88
LLC6 WRITEBACK ACCESS: 160779  HIT: 139789  MISS: 20990  HIT %: 86.9448  MISS %: 13.0552  AVERAGE MISS PENALTY: 0
LLC6 PREFETCH  REQUESTED:     0  ISSUED:     0  USEFUL:    27  USELESS: 2940251
 USEFUL LOAD PREFETCHES:         27 PREFETCH ISSUED TO LOWER LEVEL:   49083589  ACCURACY: 5.50082e-05
 TIMELY PREFETCHES:         27 LATE PREFETCHES: 0 DROPPED PREFETCHES: 0
LLC6 AVERAGE MISS LATENCY: 1033.34 cycles
LLC7 TOTAL     ACCESS: 688234  HIT: 140991  MISS: 547243  HIT %: 20.4859  MISS %: 79.5141  AVERAGE MISS PENALTY: 1024.61
LLC7 LOAD      ACCESS:  3967  HIT:     0  MISS:  3967  HIT %:     0  MISS %:   100  AVERAGE MISS PENALTY: 1150.27
LLC7 RFO       ACCESS: 160302  HIT:     2  MISS: 160300  HIT %: 0.00124765  MISS %: 99.9988  AVERAGE MISS PENALTY: 1041.88
LLC7 PREFETCH  ACCESS: 363195  HIT:  1533  MISS: 361662  HIT %: 0.422087  MISS %: 99.5779  AVERAGE MISS PENALTY: 1075.96
LLC7 WRITEBACK ACCESS: 160770  HIT: 139456  MISS: 21314  HIT %: 86.7426  MISS %: 13.2574  AVERAGE MISS PENALTY: 0
LLC7 PREFETCH  REQUESTED:     0  ISSUED:     0  USEFUL:    28  USELESS: 2938939
 USEFUL LOAD PREFETCHES:         28 PREFETCH ISSUED TO LOWER LEVEL:   47826482  ACCURACY: 5.8545e-05
 TIMELY PREFETCHES:         28 LATE PREFETCHES: 0 DROPPED PREFETCHES: 0
LLC7 AVERAGE MISS LATENCY: 1024.61 cycles
ROI Average ROB Stall Cycles:	20.3328
ROI Total ROB Stalls Cycles:	407459301
ROI TOTAL ROB counter      :	20039555
ROI Average Load ROB Stall Cycles:	57.5912
ROI Total Load ROB Stalls Cycle  :	347570016
ROI Total Load ROB stalls Counter:	6035121
Major fault: 0 Minor fault: 79937

CPU 7 cumulative IPC: 0.442077 instructions: 200000002 cycles: 452410209
ITLB TOTAL     ACCESS: 36969272  HIT: 36969272  MISS:     0  HIT %:   100  MISS %:     0  AVERAGE MISS PENALTY: 0
ITLB LOAD      ACCESS: 36969272  HIT: 36969272  MISS:     0  HIT %:   100  MISS %:     0  AVERAGE MISS PENALTY: 0
ITLB RFO       ACCESS:     0  HIT:     0  MISS:     0  HIT %:     0  MISS %:     0  AVERAGE MISS PENALTY: 0
ITLB PREFETCH  ACCESS:     0  HIT:     0  MISS:     0  HIT %:     0  MISS %:     0  AVERAGE MISS PENALTY: 0
ITLB WRITEBACK ACCESS:     0  HIT:     0  MISS:     0  HIT %:     0  MISS %:     0  AVERAGE MISS PENALTY: 0
ITLB PREFETCH  REQUESTED:     0  ISSUED:     0  USEFUL:     0  USELESS:     0
 USEFUL LOAD PREFETCHES:          0 PREFETCH ISSUED TO LOWER LEVEL:          0  ACCURACY: -nan
 TIMELY PREFETCHES:          0 LATE PREFETCHES: 0 DROPPED PREFETCHES: 0
ITLB AVERAGE MISS LATENCY: -nan cycles
DTLB TOTAL     ACCESS: 60597865  HIT: 60488327  MISS: 109538  HIT %: 99.8192  MISS %: 0.180762  AVERAGE MISS PENALTY: 128.799
DTLB LOAD      ACCESS: 52303237  HIT: 52220072  MISS: 83165  HIT %: 99.841  MISS %: 0.159005  AVERAGE MISS PENALTY: 137.743
DTLB RFO       ACCESS: 8294628  HIT: 8268255  MISS: 26373  HIT %: 99.682  MISS %: 0.317953  AVERAGE MISS PENALTY: 100.595
DTLB PREFETCH  ACCESS:     0  HIT:     0  MISS:     0  HIT %:     0  MISS %:     0  AVERAGE MISS PENALTY: 0
DTLB WRITEBACK ACCESS:     0  HIT:     0  MISS:     0  HIT %:     0  MISS %:     0  AVERAGE MISS PENALTY: 0
DTLB PREFETCH  REQUESTED:     0  ISSUED:     0  USEFUL:     0  USELESS:     0
 USEFUL LOAD PREFETCHES:          0 PREFETCH ISSUED TO LOWER LEVEL:          0  ACCURACY: -nan
 TIMELY PREFETCHES:          0 LATE PREFETCHES: 0 DROPPED PREFETCHES: 0
DTLB AVERAGE MISS LATENCY: 128.799 cycles
STLB TOTAL     ACCESS: 109538  HIT: 17588  MISS: 91950  HIT %: 16.0565  MISS %: 83.9435  AVERAGE MISS PENALTY: 100
STLB LOAD      ACCESS: 83165  HIT: 15236  MISS: 67929  HIT %: 18.3202  MISS %: 81.6798  AVERAGE MISS PENALTY: 100
STLB RFO       ACCESS: 26373  HIT:  2352  MISS: 24021  HIT %: 8.91821  MISS %: 91.0818  AVERAGE MISS PENALTY: 100
STLB PREFETCH  ACCESS:     0  HIT:     0  MISS:     0  HIT %:     0  MISS %:     0  AVERAGE MISS PENALTY: 0
STLB WRITEBACK ACCESS:     0  HIT:     0  MISS:     0  HIT %:     0  MISS %:     0  AVERAGE MISS PENALTY: 0
STLB PREFETCH  REQUESTED:     0  ISSUED:     0  USEFUL:     0  USELESS:     0
 USEFUL LOAD PREFETCHES:          0 PREFETCH ISSUED TO LOWER LEVEL:          0  ACCURACY: -nan
 TIMELY PREFETCHES:          0 LATE PREFETCHES: 0 DROPPED PREFETCHES: 0
STLB AVERAGE MISS LATENCY: 100 cycles
L1D TOTAL     ACCESS: 59616132  HIT: 53842152  MISS: 5773980  HIT %: 90.3147  MISS %: 9.68526  AVERAGE MISS PENALTY: 3.04407e+07
L1D LOAD      ACCESS: 48309293  HIT: 47619184  MISS: 690109  HIT %: 98.5715  MISS %: 1.42852  AVERAGE MISS PENALTY: 2.54686e+08
L1D RFO       ACCESS: 2076951  HIT: 794504  MISS: 1282447  HIT %: 38.2534  MISS %: 61.7466  AVERAGE MISS PENALTY: 1203.72
L1D PREFETCH  ACCESS: 9229888  HIT: 5428464  MISS: 3801424  HIT %: 58.814  MISS %: 41.186  AVERAGE MISS PENALTY: 239.863
L1D WRITEBACK ACCESS:     0  HIT:     0  MISS:     0  HIT %:     0  MISS %:     0  AVERAGE MISS PENALTY: 0
L1D PREFETCH  REQUESTED: 10944938  ISSUED: 10828856  USEFUL: 3731599  USELESS: 69820
 USEFUL LOAD PREFETCHES:    3731599 PREFETCH ISSUED TO LOWER LEVEL:   31501966  ACCURACY: 11.8456
 TIMELY PREFETCHES:    3731599 LATE PREFETCHES: 547824 DROPPED PREFETCHES: 116082
L1D AVERAGE MISS LATENCY: 490.578 cycles
L1I TOTAL     ACCESS: 51330900  HIT: 51330878  MISS:    22  HIT %:   100  MISS %: 4.28592e-05  AVERAGE MISS PENALTY: 897.818
L1I LOAD      ACCESS: 51330900  HIT: 51330878  MISS:    22  HIT %:   100  MISS %: 4.28592e-05  AVERAGE MISS PENALTY: 897.818
L1I RFO       ACCESS:     0  HIT:     0  MISS:     0  HIT %:     0  MISS %:     0  AVERAGE MISS PENALTY: 0
L1I PREFETCH  ACCESS:     0  HIT:     0  MISS:     0  HIT %:     0  MISS %:     0  AVERAGE MISS PENALTY: 0
L1I WRITEBACK ACCESS:     0  HIT:     0  MISS:     0  HIT %:     0  MISS %:     0  AVERAGE MISS PENALTY: 0
L1I PREFETCH  REQUESTED:     0  ISSUED:     0  USEFUL:     0  USELESS:     0
 USEFUL LOAD PREFETCHES:          0 PREFETCH ISSUED TO LOWER LEVEL:          0  ACCURACY: -nan
 TIMELY PREFETCHES:          0 LATE PREFETCHES: 0 DROPPED PREFETCHES: 0
L1I AVERAGE MISS LATENCY: 897.818 cycles
L2C TOTAL     ACCESS: 11457710  HIT: 7240643  MISS: 4217067  HIT %: 63.1945  MISS %: 36.8055  AVERAGE MISS PENALTY: 4.08948e+07
L2C LOAD      ACCESS: 678438  HIT: 74315  MISS: 604123  HIT %: 10.9538  MISS %: 89.0462  AVERAGE MISS PENALTY: 2.85459e+08
L2C RFO       ACCESS: 1282447  HIT:     4  MISS: 1282443  HIT %: 0.000311904  MISS %: 99.9997  AVERAGE MISS PENALTY: 1188.18
L2C PREFETCH  ACCESS: 8206022  HIT: 5875544  MISS: 2330478  HIT %: 71.6004  MISS %: 28.3996  AVERAGE MISS PENALTY: 950.384
L2C WRITEBACK ACCESS: 1290803  HIT: 1290780  MISS:    23  HIT %: 99.9982  MISS %: 0.00178184  AVERAGE MISS PENALTY: 0
L2C PREFETCH  REQUESTED: 7279284  ISSUED: 7277906  USEFUL:  2689  USELESS: 2326934
 USEFUL LOAD PREFETCHES:       2689 PREFETCH ISSUED TO LOWER LEVEL:    4977009  ACCURACY: 0.0540284
 TIMELY PREFETCHES:       2689 LATE PREFETCHES: 534912 DROPPED PREFETCHES: 1378
L2C AVERAGE MISS LATENCY: 973.252 cycles
LLC0 TOTAL     ACCESS: 686637  HIT: 140957  MISS: 545680  HIT %: 20.5286  MISS %: 79.4714  AVERAGE MISS PENALTY: 994.15
LLC0 LOAD      ACCESS: 48025  HIT:   173  MISS: 47852  HIT %: 0.360229  MISS %: 99.6398  AVERAGE MISS PENALTY: 907.093
LLC0 RFO       ACCESS: 160311  HIT:     5  MISS: 160306  HIT %: 0.00311894  MISS %: 99.9969  AVERAGE MISS PENALTY: 1090.41
LLC0 PREFETCH  ACCESS: 317793  HIT:  1175  MISS: 316618  HIT %: 0.369738  MISS %: 99.6303  AVERAGE MISS PENALTY: 1024.21
LLC0 WRITEBACK ACCESS: 160508  HIT: 139604  MISS: 20904  HIT %: 86.9764  MISS %: 13.0236  AVERAGE MISS PENALTY: 0
LLC0 PREFETCH  REQUESTED:     0  ISSUED:     0  USEFUL:    23  USELESS: 2571586
 USEFUL LOAD PREFETCHES:         23 PREFETCH ISSUED TO LOWER LEVEL:   29826955  ACCURACY: 7.71115e-05
 TIMELY PREFETCHES:         23 LATE PREFETCHES: 0 DROPPED PREFETCHES: 0
LLC0 AVERAGE MISS LATENCY: 994.15 cycles
Deadblocks : 389862 Deadblock percentage : 814.725

LLC1 TOTAL     ACCESS: 687061  HIT: 141053  MISS: 546008  HIT %: 20.5299  MISS %: 79.4701  AVERAGE MISS PENALTY: 992.496
LLC1 LOAD      ACCESS:  6360  HIT:     7  MISS:  6353  HIT %: 0.110063  MISS %: 99.8899  AVERAGE MISS PENALTY: 1206.45
LLC1 RFO       ACCESS: 160304  HIT:     3  MISS: 160301  HIT %: 0.00187144  MISS %: 99.9981  AVERAGE MISS PENALTY: 1090.8
LLC1 PREFETCH  ACCESS: 359890  HIT:  1371  MISS: 358519  HIT %: 0.38095  MISS %: 99.6191  AVERAGE MISS PENALTY: 1002.43
LLC1 WRITEBACK ACCESS: 160507  HIT: 139672  MISS: 20835  HIT %: 87.0193  MISS %: 12.9807  AVERAGE MISS PENALTY: 0
LLC1 PREFETCH  REQUESTED:     0  ISSUED:     0  USEFUL:    17  USELESS: 2912725
 USEFUL LOAD PREFETCHES:         17 PREFETCH ISSUED TO LOWER LEVEL:   33405218  ACCURACY: 5.08903e-05
 TIMELY PREFETCHES:         17 LATE PREFETCHES: 0 DROPPED PREFETCHES: 0
LLC1 AVERAGE MISS LATENCY: 992.496 cycles
LLC2 TOTAL     ACCESS: 687403  HIT: 140876  MISS: 546527  HIT %: 20.4939  MISS %: 79.5061  AVERAGE MISS PENALTY: 1008.5
LLC2 LOAD      ACCESS:  4015  HIT:     1  MISS:  4014  HIT %: 0.0249066  MISS %: 99.9751  AVERAGE MISS PENALTY: 1134.77
LLC2 RFO       ACCESS: 160310  HIT:     2  MISS: 160308  HIT %: 0.00124758  MISS %: 99.9988  AVERAGE MISS PENALTY: 1030.68
LLC2 PREFETCH  ACCESS: 362561  HIT:  1325  MISS: 361236  HIT %: 0.365456  MISS %: 99.6345  AVERAGE MISS PENALTY: 1055.79
LLC2 WRITEBACK ACCESS: 160517  HIT: 139548  MISS: 20969  HIT %: 86.9366  MISS %: 13.0634  AVERAGE MISS PENALTY: 0
LLC2 PREFETCH  REQUESTED:     0  ISSUED:     0  USEFUL:    30  USELESS: 2934555
 USEFUL LOAD PREFETCHES:         30 PREFETCH ISSUED TO LOWER LEVEL:   39550907  ACCURACY: 7.58516e-05
 TIMELY PREFETCHES:         30 LATE PREFETCHES: 0 DROPPED PREFETCHES: 0
LLC2 AVERAGE MISS LATENCY: 1008.5 cycles
LLC3 TOTAL     ACCESS: 687805  HIT: 140887  MISS: 546918  HIT %: 20.4836  MISS %: 79.5164  AVERAGE MISS PENALTY: 1010.87
LLC3 LOAD      ACCESS:  4051  HIT:     0  MISS:  4051  HIT %:     0  MISS %:   100  AVERAGE MISS PENALTY: 1170.14
LLC3 RFO       ACCESS: 160302  HIT:     2  MISS: 160300  HIT %: 0.00124765  MISS %: 99.9988  AVERAGE MISS PENALTY: 1033.53
LLC3 PREFETCH  ACCESS: 362942  HIT:  1326  MISS: 361616  HIT %: 0.365348  MISS %: 99.6347  AVERAGE MISS PENALTY: 1057.61
LLC3 WRITEBACK ACCESS: 160510  HIT: 139559  MISS: 20951  HIT %: 86.9472  MISS %: 13.0528  AVERAGE MISS PENALTY: 0
LLC3 PREFETCH  REQUESTED:     0  ISSUED:     0  USEFUL:    23  USELESS: 2937375
 USEFUL LOAD PREFETCHES:         23 PREFETCH ISSUED TO LOWER LEVEL:   38761494  ACCURACY: 5.93372e-05
 TIMELY PREFETCHES:         23 LATE PREFETCHES: 0 DROPPED PREFETCHES: 0
LLC3 AVERAGE MISS LATENCY: 1010.87 cycles
LLC4 TOTAL     ACCESS: 688123  HIT: 141150  MISS: 546973  HIT %: 20.5123  MISS %: 79.4877  AVERAGE MISS PENALTY: 1028.95
LLC4 LOAD      ACCESS:  4026  HIT:     0  MISS:  4026  HIT %:     0  MISS %:   100  AVERAGE MISS PENALTY: 1282.63
LLC4 RFO       ACCESS: 160301  HIT:     2  MISS: 160299  HIT %: 0.00124765  MISS %: 99.9988  AVERAGE MISS PENALTY: 1111.96
LLC4 PREFETCH  ACCESS: 363283  HIT:  1321  MISS: 361962  HIT %: 0.363628  MISS %: 99.6364  AVERAGE MISS PENALTY: 1048.17
LLC4 WRITEBACK ACCESS: 160513  HIT: 139827  MISS: 20686  HIT %: 87.1126  MISS %: 12.8874  AVERAGE MISS PENALTY: 0
LLC4 PREFETCH  REQUESTED:     0  ISSUED:     0  USEFUL:    19  USELESS: 2939799
 USEFUL LOAD PREFETCHES:         19 PREFETCH ISSUED TO LOWER LEVEL:   46173742  ACCURACY: 4.11489e-05
 TIMELY PREFETCHES:         19 LATE PREFETCHES: 0 DROPPED PREFETCHES: 0
LLC4 AVERAGE MISS LATENCY: 1028.95 cycles
LLC5 TOTAL     ACCESS: 688038  HIT: 141054  MISS: 546984  HIT %: 20.5009  MISS %: 79.4991  AVERAGE MISS PENALTY: 1012.77
LLC5 LOAD      ACCESS:  3994  HIT:     0  MISS:  3994  HIT %:     0  MISS %:   100  AVERAGE MISS PENALTY: 1275.66
LLC5 RFO       ACCESS: 160303  HIT:     6  MISS: 160297  HIT %: 0.00374291  MISS %: 99.9963  AVERAGE MISS PENALTY: 1104.64
LLC5 PREFETCH  ACCESS: 363235  HIT:  1327  MISS: 361908  HIT %: 0.365328  MISS %: 99.6347  AVERAGE MISS PENALTY: 1027.34
LLC5 WRITEBACK ACCESS: 160506  HIT: 139721  MISS: 20785  HIT %: 87.0503  MISS %: 12.9497  AVERAGE MISS PENALTY: 0
LLC5 PREFETCH  REQUESTED:     0  ISSUED:     0  USEFUL:    27  USELESS: 2939591
 USEFUL LOAD PREFETCHES:         27 PREFETCH ISSUED TO LOWER LEVEL:   41083767  ACCURACY: 6.57194e-05
 TIMELY PREFETCHES:         27 LATE PREFETCHES: 0 DROPPED PREFETCHES: 0
LLC5 AVERAGE MISS LATENCY: 1012.77 cycles
LLC6 TOTAL     ACCESS: 688143  HIT: 141066  MISS: 547077  HIT %: 20.4995  MISS %: 79.5005  AVERAGE MISS PENALTY: 1034.71
LLC6 LOAD      ACCESS:  3991  HIT:     0  MISS:  3991  HIT %:     0  MISS %:   100  AVERAGE MISS PENALTY: 1204.6
LLC6 RFO       ACCESS: 160310  HIT:     1  MISS: 160309  HIT %: 0.000623791  MISS %: 99.9994  AVERAGE MISS PENALTY: 1049.7
LLC6 PREFETCH  ACCESS: 363328  HIT:  1351  MISS: 361977  HIT %: 0.37184  MISS %: 99.6282  AVERAGE MISS PENALTY: 1085.66
LLC6 WRITEBACK ACCESS: 160514  HIT: 139714  MISS: 20800  HIT %: 87.0416  MISS %: 12.9584  AVERAGE MISS PENALTY: 0
LLC6 PREFETCH  REQUESTED:     0  ISSUED:     0  USEFUL:    27  USELESS: 2940251
 USEFUL LOAD PREFETCHES:         27 PREFETCH ISSUED TO LOWER LEVEL:   49083589  ACCURACY: 5.50082e-05
 TIMELY PREFETCHES:         27 LATE PREFETCHES: 0 DROPPED PREFETCHES: 0
LLC6 AVERAGE MISS LATENCY: 1034.71 cycles
LLC7 TOTAL     ACCESS: 687911  HIT: 140940  MISS: 546971  HIT %: 20.4881  MISS %: 79.5119  AVERAGE MISS PENALTY: 1026.02
LLC7 LOAD      ACCESS:  3996  HIT:     0  MISS:  3996  HIT %:     0  MISS %:   100  AVERAGE MISS PENALTY: 1150.5
LLC7 RFO       ACCESS: 160301  HIT:     3  MISS: 160298  HIT %: 0.00187148  MISS %: 99.9981  AVERAGE MISS PENALTY: 1044.97
LLC7 PREFETCH  ACCESS: 363111  HIT:  1284  MISS: 361827  HIT %: 0.353611  MISS %: 99.6464  AVERAGE MISS PENALTY: 1075.37
LLC7 WRITEBACK ACCESS: 160503  HIT: 139653  MISS: 20850  HIT %: 87.0096  MISS %: 12.9904  AVERAGE MISS PENALTY: 0
LLC7 PREFETCH  REQUESTED:     0  ISSUED:     0  USEFUL:    28  USELESS: 2938939
 USEFUL LOAD PREFETCHES:         28 PREFETCH ISSUED TO LOWER LEVEL:   47826482  ACCURACY: 5.8545e-05
 TIMELY PREFETCHES:         28 LATE PREFETCHES: 0 DROPPED PREFETCHES: 0
LLC7 AVERAGE MISS LATENCY: 1026.02 cycles
ROI Average ROB Stall Cycles:	20.3751
ROI Total ROB Stalls Cycles:	408287440
ROI TOTAL ROB counter      :	20038580
ROI Average Load ROB Stall Cycles:	57.7319
ROI Total Load ROB Stalls Cycle  :	348461949
ROI Total Load ROB stalls Counter:	6035865
Major fault: 0 Minor fault: 79753








Interconnect Stats 
LINK 0 BW : 0LINK 1 BW : 0LINK 2 BW : 0LINK 3 BW : 0LINK 4 BW : 0LINK 5 BW : 0LINK 6 BW : 0LINK 7 BW : 0
DRAM Statistics
 CHANNEL 0
 RQ ROW_BUFFER_HIT: 6967732  ROW_BUFFER_MISS: 10150484
 DBUS_CONGESTED: 23274637
 WQ ROW_BUFFER_HIT: 232421  ROW_BUFFER_MISS: 5016441  FULL:     0

 CHANNEL 1
 RQ ROW_BUFFER_HIT: 6982590  ROW_BUFFER_MISS: 10140204
 DBUS_CONGESTED: 23274637
 WQ ROW_BUFFER_HIT: 232262  ROW_BUFFER_MISS: 5016041  FULL:     0

 AVG_CONGESTED_CYCLE: 6
DRAM PAGES: 2097152
Allocated PAGES: 635046
L2C destructor called
L1D destructor called
L1I destructor called
STLB destructor called
DTLB destructor called
ITLB destructor called
L2C destructor called
L1D destructor called
L1I destructor called
STLB destructor called
DTLB destructor called
ITLB destructor called
L2C destructor called
L1D destructor called
L1I destructor called
STLB destructor called
DTLB destructor called
ITLB destructor called
L2C destructor called
L1D destructor called
L1I destructor called
STLB destructor called
DTLB destructor called
ITLB destructor called
L2C destructor called
L1D destructor called
L1I destructor called
STLB destructor called
DTLB destructor called
ITLB destructor called
L2C destructor called
L1D destructor called
L1I destructor called
STLB destructor called
DTLB destructor called
ITLB destructor called
L2C destructor called
L1D destructor called
L1I destructor called
STLB destructor called
DTLB destructor called
ITLB destructor called
L2C destructor called
L1D destructor called
L1I destructor called
STLB destructor called
DTLB destructor called
ITLB destructor called
