
*** ChampSim Multicore Out-of-Order Simulator ***

Warmup Instructions: 200000000
Simulation Instructions: 200000000
Number of CPUs: 8
threads:1

L1I Configuration:
L1I_SET:64
L1I_WAY:8
L1I_RQ_SIZE:64
L1I_WQ_SIZE:64
L1I_PQ_SIZE:8
L1I_MSHR_SIZE:8

L1D Configuration:
L1D_SET:64
L1D_WAY:12
L1D_RQ_SIZE:64
L1D_WQ_SIZE:64
L1D_PQ_SIZE:8
L1D_MSHR_SIZE:16

L2C Configuration:
L2C_SET:1024
L2C_WAY:8
L2C_RQ_SIZE:32
L2C_WQ_SIZE:32
L2C_PQ_SIZE:16
L2C_MSHR_SIZE:32

LLC Configuration:
LLC_SET:2048
LLC_WAY:16
LLC SLICES:8
LLC_RQ_SIZE:64
LLC_WQ_SIZE:64
LLC_PQ_SIZE:32
LLC_MSHR_SIZE:64

Interconnect OFF
Attacker deprioritize is: OFF
Off-chip DRAM Size: 8192 MB Channels: 2 Width: 64-bit Data Rate: 3200 MT/s
PAGE SIZE in KB: 4.000000 
PAGE SIZE in MB: 0.003906 
PAGE offset in bits: 12 
CEASER-S_LLC:0
MIRAGE : 1
CEASER_LATENCY:3
REMAP : OFF
Partitions : 1
Multi-Step : OFF
BFS : OFF

CPU 0 runs /home/anubhav/spec_2017/654.roms_s-294B.champsimtrace.xz
CPU 1 runs /home/anubhav/spec_2017/654.roms_s-294B.champsimtrace.xz
CPU 2 runs /home/anubhav/spec_2017/654.roms_s-294B.champsimtrace.xz
CPU 3 runs /home/anubhav/spec_2017/654.roms_s-294B.champsimtrace.xz
CPU 4 runs /home/anubhav/spec_2017/654.roms_s-294B.champsimtrace.xz
CPU 5 runs /home/anubhav/spec_2017/654.roms_s-294B.champsimtrace.xz
CPU 6 runs /home/anubhav/spec_2017/654.roms_s-294B.champsimtrace.xz
CPU 7 runs /home/anubhav/spec_2017/654.roms_s-294B.champsimtrace.xz
CPU 0 Bimodal branch predictor
Initialize Hawkeye state
Initialize Hawkeye state
Initialize Hawkeye state
Initialize Hawkeye state
Initialize Hawkeye state
Initialize Hawkeye state
Initialize Hawkeye state
Initialize Hawkeye state
CPU 1 Bimodal branch predictor
Initialize Hawkeye state
Initialize Hawkeye state
Initialize Hawkeye state
Initialize Hawkeye state
Initialize Hawkeye state
Initialize Hawkeye state
Initialize Hawkeye state
Initialize Hawkeye state
CPU 2 Bimodal branch predictor
Initialize Hawkeye state
Initialize Hawkeye state
Initialize Hawkeye state
Initialize Hawkeye state
Initialize Hawkeye state
Initialize Hawkeye state
Initialize Hawkeye state
Initialize Hawkeye state
CPU 3 Bimodal branch predictor
Initialize Hawkeye state
Initialize Hawkeye state
Initialize Hawkeye state
Initialize Hawkeye state
Initialize Hawkeye state
Initialize Hawkeye state
Initialize Hawkeye state
Initialize Hawkeye state
CPU 4 Bimodal branch predictor
Initialize Hawkeye state
Initialize Hawkeye state
Initialize Hawkeye state
Initialize Hawkeye state
Initialize Hawkeye state
Initialize Hawkeye state
Initialize Hawkeye state
Initialize Hawkeye state
CPU 5 Bimodal branch predictor
Initialize Hawkeye state
Initialize Hawkeye state
Initialize Hawkeye state
Initialize Hawkeye state
Initialize Hawkeye state
Initialize Hawkeye state
Initialize Hawkeye state
Initialize Hawkeye state
CPU 6 Bimodal branch predictor
Initialize Hawkeye state
Initialize Hawkeye state
Initialize Hawkeye state
Initialize Hawkeye state
Initialize Hawkeye state
Initialize Hawkeye state
Initialize Hawkeye state
Initialize Hawkeye state
CPU 7 Bimodal branch predictor
Initialize Hawkeye state
Initialize Hawkeye state
Initialize Hawkeye state
Initialize Hawkeye state
Initialize Hawkeye state
Initialize Hawkeye state
Initialize Hawkeye state
Initialize Hawkeye state
Heartbeat CPU 5 instructions: 10000000 cycles: 4652601 heartbeat IPC: 2.14934 cumulative IPC: 2.14934 (Simulation time: 0 hr 30 min 57 sec) 
 Total Blocks : 262144 Invalid Blocks : 6133
Heartbeat CPU 1 instructions: 10000000 cycles: 4652622 heartbeat IPC: 2.14933 cumulative IPC: 2.14933 (Simulation time: 0 hr 30 min 57 sec) 
 Total Blocks : 262144 Invalid Blocks : 6133
Heartbeat CPU 0 instructions: 10000000 cycles: 4652658 heartbeat IPC: 2.14931 cumulative IPC: 2.14931 (Simulation time: 0 hr 30 min 57 sec) 
 Total Blocks : 262144 Invalid Blocks : 6133
Heartbeat CPU 3 instructions: 10000000 cycles: 4652672 heartbeat IPC: 2.1493 cumulative IPC: 2.1493 (Simulation time: 0 hr 30 min 57 sec) 
 Total Blocks : 262144 Invalid Blocks : 6133
Heartbeat CPU 2 instructions: 10000000 cycles: 4652674 heartbeat IPC: 2.1493 cumulative IPC: 2.1493 (Simulation time: 0 hr 30 min 57 sec) 
 Total Blocks : 262144 Invalid Blocks : 6133
Heartbeat CPU 4 instructions: 10000000 cycles: 4652687 heartbeat IPC: 2.1493 cumulative IPC: 2.1493 (Simulation time: 0 hr 30 min 57 sec) 
 Total Blocks : 262144 Invalid Blocks : 6133
Heartbeat CPU 6 instructions: 10000000 cycles: 4652692 heartbeat IPC: 2.14929 cumulative IPC: 2.14929 (Simulation time: 0 hr 30 min 57 sec) 
 Total Blocks : 262144 Invalid Blocks : 6133
Heartbeat CPU 7 instructions: 10000000 cycles: 4652712 heartbeat IPC: 2.14928 cumulative IPC: 2.14928 (Simulation time: 0 hr 30 min 57 sec) 
 Total Blocks : 262144 Invalid Blocks : 6133
Heartbeat CPU 5 instructions: 20000003 cycles: 9304823 heartbeat IPC: 2.14951 cumulative IPC: 2.14942 (Simulation time: 1 hr 15 min 45 sec) 
 Total Blocks : 262144 Invalid Blocks : 161
Heartbeat CPU 1 instructions: 20000003 cycles: 9304852 heartbeat IPC: 2.14951 cumulative IPC: 2.14942 (Simulation time: 1 hr 15 min 45 sec) 
 Total Blocks : 262144 Invalid Blocks : 161
Heartbeat CPU 0 instructions: 20000003 cycles: 9304868 heartbeat IPC: 2.14952 cumulative IPC: 2.14941 (Simulation time: 1 hr 15 min 45 sec) 
 Total Blocks : 262144 Invalid Blocks : 161
Heartbeat CPU 3 instructions: 20000003 cycles: 9305000 heartbeat IPC: 2.14946 cumulative IPC: 2.14938 (Simulation time: 1 hr 15 min 45 sec) 
 Total Blocks : 262144 Invalid Blocks : 161
Heartbeat CPU 2 instructions: 20000003 cycles: 9305008 heartbeat IPC: 2.14946 cumulative IPC: 2.14938 (Simulation time: 1 hr 15 min 45 sec) 
 Total Blocks : 262144 Invalid Blocks : 161
Heartbeat CPU 4 instructions: 20000003 cycles: 9305013 heartbeat IPC: 2.14946 cumulative IPC: 2.14938 (Simulation time: 1 hr 15 min 45 sec) 
 Total Blocks : 262144 Invalid Blocks : 161
Heartbeat CPU 6 instructions: 20000003 cycles: 9305029 heartbeat IPC: 2.14946 cumulative IPC: 2.14938 (Simulation time: 1 hr 15 min 45 sec) 
 Total Blocks : 262144 Invalid Blocks : 161
Heartbeat CPU 7 instructions: 20000003 cycles: 9305052 heartbeat IPC: 2.14946 cumulative IPC: 2.14937 (Simulation time: 1 hr 15 min 45 sec) 
 Total Blocks : 262144 Invalid Blocks : 161
Heartbeat CPU 5 instructions: 30000002 cycles: 13957050 heartbeat IPC: 2.14951 cumulative IPC: 2.14945 (Simulation time: 2 hr 13 min 54 sec) 
 Total Blocks : 262144 Invalid Blocks : 5
Heartbeat CPU 1 instructions: 30000002 cycles: 13957080 heartbeat IPC: 2.14951 cumulative IPC: 2.14945 (Simulation time: 2 hr 13 min 54 sec) 
 Total Blocks : 262144 Invalid Blocks : 5
Heartbeat CPU 0 instructions: 30000002 cycles: 13957090 heartbeat IPC: 2.14951 cumulative IPC: 2.14945 (Simulation time: 2 hr 13 min 54 sec) 
 Total Blocks : 262144 Invalid Blocks : 5
Heartbeat CPU 2 instructions: 30000002 cycles: 13957316 heartbeat IPC: 2.14947 cumulative IPC: 2.14941 (Simulation time: 2 hr 13 min 54 sec) 
 Total Blocks : 262144 Invalid Blocks : 5
Heartbeat CPU 3 instructions: 30000002 cycles: 13957323 heartbeat IPC: 2.14946 cumulative IPC: 2.14941 (Simulation time: 2 hr 13 min 54 sec) 
 Total Blocks : 262144 Invalid Blocks : 5
Heartbeat CPU 4 instructions: 30000002 cycles: 13957330 heartbeat IPC: 2.14947 cumulative IPC: 2.14941 (Simulation time: 2 hr 13 min 54 sec) 
 Total Blocks : 262144 Invalid Blocks : 5
Heartbeat CPU 7 instructions: 30000002 cycles: 13957334 heartbeat IPC: 2.14948 cumulative IPC: 2.14941 (Simulation time: 2 hr 13 min 54 sec) 
 Total Blocks : 262144 Invalid Blocks : 5
Heartbeat CPU 6 instructions: 30000002 cycles: 13957336 heartbeat IPC: 2.14947 cumulative IPC: 2.14941 (Simulation time: 2 hr 13 min 54 sec) 
 Total Blocks : 262144 Invalid Blocks : 5
Heartbeat CPU 5 instructions: 40000000 cycles: 18609369 heartbeat IPC: 2.14947 cumulative IPC: 2.14945 (Simulation time: 3 hr 23 min 44 sec) 
 Total Blocks : 262144 Invalid Blocks : 1
Heartbeat CPU 1 instructions: 40000000 cycles: 18609400 heartbeat IPC: 2.14946 cumulative IPC: 2.14945 (Simulation time: 3 hr 23 min 44 sec) 
 Total Blocks : 262144 Invalid Blocks : 1
Heartbeat CPU 0 instructions: 40000000 cycles: 18609424 heartbeat IPC: 2.14946 cumulative IPC: 2.14945 (Simulation time: 3 hr 23 min 44 sec) 
 Total Blocks : 262144 Invalid Blocks : 1
Heartbeat CPU 2 instructions: 40000000 cycles: 18609709 heartbeat IPC: 2.14943 cumulative IPC: 2.14942 (Simulation time: 3 hr 23 min 44 sec) 
 Total Blocks : 262144 Invalid Blocks : 1
Heartbeat CPU 3 instructions: 40000000 cycles: 18609721 heartbeat IPC: 2.14943 cumulative IPC: 2.14941 (Simulation time: 3 hr 23 min 44 sec) 
 Total Blocks : 262144 Invalid Blocks : 1
Heartbeat CPU 4 instructions: 40000000 cycles: 18609739 heartbeat IPC: 2.14942 cumulative IPC: 2.14941 (Simulation time: 3 hr 23 min 44 sec) 
 Total Blocks : 262144 Invalid Blocks : 1
Heartbeat CPU 6 instructions: 40000000 cycles: 18609743 heartbeat IPC: 2.14942 cumulative IPC: 2.14941 (Simulation time: 3 hr 23 min 44 sec) 
 Total Blocks : 262144 Invalid Blocks : 1
Heartbeat CPU 7 instructions: 40000000 cycles: 18609755 heartbeat IPC: 2.14942 cumulative IPC: 2.14941 (Simulation time: 3 hr 23 min 44 sec) 
 Total Blocks : 262144 Invalid Blocks : 1
Heartbeat CPU 5 instructions: 50000001 cycles: 23261545 heartbeat IPC: 2.14953 cumulative IPC: 2.14947 (Simulation time: 4 hr 42 min 42 sec) 
 Total Blocks : 262144 Invalid Blocks : 0
Heartbeat CPU 1 instructions: 50000001 cycles: 23261567 heartbeat IPC: 2.14954 cumulative IPC: 2.14947 (Simulation time: 4 hr 42 min 42 sec) 
 Total Blocks : 262144 Invalid Blocks : 0
Heartbeat CPU 0 instructions: 50000001 cycles: 23261612 heartbeat IPC: 2.14953 cumulative IPC: 2.14946 (Simulation time: 4 hr 42 min 42 sec) 
 Total Blocks : 262144 Invalid Blocks : 0
Heartbeat CPU 3 instructions: 50000001 cycles: 23261960 heartbeat IPC: 2.1495 cumulative IPC: 2.14943 (Simulation time: 4 hr 42 min 43 sec) 
 Total Blocks : 262144 Invalid Blocks : 0
Heartbeat CPU 4 instructions: 50000001 cycles: 23261961 heartbeat IPC: 2.14951 cumulative IPC: 2.14943 (Simulation time: 4 hr 42 min 43 sec) 
 Total Blocks : 262144 Invalid Blocks : 0
Heartbeat CPU 2 instructions: 50000001 cycles: 23261964 heartbeat IPC: 2.1495 cumulative IPC: 2.14943 (Simulation time: 4 hr 42 min 43 sec) 
 Total Blocks : 262144 Invalid Blocks : 0
Heartbeat CPU 6 instructions: 50000001 cycles: 23261999 heartbeat IPC: 2.14949 cumulative IPC: 2.14943 (Simulation time: 4 hr 42 min 43 sec) 
 Total Blocks : 262144 Invalid Blocks : 0
Heartbeat CPU 7 instructions: 50000001 cycles: 23262010 heartbeat IPC: 2.1495 cumulative IPC: 2.14943 (Simulation time: 4 hr 42 min 43 sec) 
 Total Blocks : 262144 Invalid Blocks : 0
Heartbeat CPU 5 instructions: 60000000 cycles: 27914992 heartbeat IPC: 2.14894 cumulative IPC: 2.14938 (Simulation time: 6 hr 13 min 13 sec) 
 Total Blocks : 262144 Invalid Blocks : 0
Heartbeat CPU 1 instructions: 60000000 cycles: 27915002 heartbeat IPC: 2.14895 cumulative IPC: 2.14938 (Simulation time: 6 hr 13 min 13 sec) 
 Total Blocks : 262144 Invalid Blocks : 0
Heartbeat CPU 0 instructions: 60000000 cycles: 27915054 heartbeat IPC: 2.14895 cumulative IPC: 2.14938 (Simulation time: 6 hr 13 min 13 sec) 
 Total Blocks : 262144 Invalid Blocks : 0
Heartbeat CPU 4 instructions: 60000000 cycles: 27915409 heartbeat IPC: 2.14894 cumulative IPC: 2.14935 (Simulation time: 6 hr 13 min 18 sec) 
 Total Blocks : 262144 Invalid Blocks : 0
Heartbeat CPU 3 instructions: 60000000 cycles: 27915434 heartbeat IPC: 2.14893 cumulative IPC: 2.14935 (Simulation time: 6 hr 13 min 18 sec) 
 Total Blocks : 262144 Invalid Blocks : 0
Heartbeat CPU 2 instructions: 60000000 cycles: 27915438 heartbeat IPC: 2.14893 cumulative IPC: 2.14935 (Simulation time: 6 hr 13 min 18 sec) 
 Total Blocks : 262144 Invalid Blocks : 0
Heartbeat CPU 6 instructions: 60000000 cycles: 27915524 heartbeat IPC: 2.14891 cumulative IPC: 2.14934 (Simulation time: 6 hr 13 min 18 sec) 
 Total Blocks : 262144 Invalid Blocks : 0
Heartbeat CPU 7 instructions: 60000000 cycles: 27915547 heartbeat IPC: 2.1489 cumulative IPC: 2.14934 (Simulation time: 6 hr 13 min 18 sec) 
 Total Blocks : 262144 Invalid Blocks : 0
Heartbeat CPU 5 instructions: 70000000 cycles: 32566987 heartbeat IPC: 2.14962 cumulative IPC: 2.14942 (Simulation time: 7 hr 55 min 15 sec) 
 Total Blocks : 262144 Invalid Blocks : 0
Heartbeat CPU 1 instructions: 70000000 cycles: 32567004 heartbeat IPC: 2.14961 cumulative IPC: 2.14941 (Simulation time: 7 hr 55 min 15 sec) 
 Total Blocks : 262144 Invalid Blocks : 0
Heartbeat CPU 0 instructions: 70000000 cycles: 32567090 heartbeat IPC: 2.1496 cumulative IPC: 2.14941 (Simulation time: 7 hr 55 min 15 sec) 
 Total Blocks : 262144 Invalid Blocks : 0
Heartbeat CPU 4 instructions: 70000000 cycles: 32567405 heartbeat IPC: 2.14961 cumulative IPC: 2.14939 (Simulation time: 7 hr 55 min 16 sec) 
 Total Blocks : 262144 Invalid Blocks : 0
Heartbeat CPU 2 instructions: 70000000 cycles: 32567443 heartbeat IPC: 2.14961 cumulative IPC: 2.14939 (Simulation time: 7 hr 55 min 16 sec) 
 Total Blocks : 262144 Invalid Blocks : 0
Heartbeat CPU 3 instructions: 70000000 cycles: 32567451 heartbeat IPC: 2.14961 cumulative IPC: 2.14939 (Simulation time: 7 hr 55 min 16 sec) 
 Total Blocks : 262144 Invalid Blocks : 0
Heartbeat CPU 6 instructions: 70000000 cycles: 32567631 heartbeat IPC: 2.14956 cumulative IPC: 2.14937 (Simulation time: 7 hr 55 min 16 sec) 
 Total Blocks : 262144 Invalid Blocks : 0
Heartbeat CPU 7 instructions: 70000000 cycles: 32567666 heartbeat IPC: 2.14956 cumulative IPC: 2.14937 (Simulation time: 7 hr 55 min 16 sec) 
 Total Blocks : 262144 Invalid Blocks : 0
Heartbeat CPU 5 instructions: 80000001 cycles: 37218881 heartbeat IPC: 2.14966 cumulative IPC: 2.14945 (Simulation time: 9 hr 49 min 1 sec) 
 Total Blocks : 262144 Invalid Blocks : 0
Heartbeat CPU 1 instructions: 80000001 cycles: 37218894 heartbeat IPC: 2.14966 cumulative IPC: 2.14945 (Simulation time: 9 hr 49 min 1 sec) 
 Total Blocks : 262144 Invalid Blocks : 0
Heartbeat CPU 0 instructions: 80000001 cycles: 37218912 heartbeat IPC: 2.1497 cumulative IPC: 2.14944 (Simulation time: 9 hr 49 min 1 sec) 
 Total Blocks : 262144 Invalid Blocks : 0
Heartbeat CPU 4 instructions: 80000001 cycles: 37219239 heartbeat IPC: 2.14969 cumulative IPC: 2.14943 (Simulation time: 9 hr 49 min 3 sec) 
 Total Blocks : 262144 Invalid Blocks : 0
Heartbeat CPU 2 instructions: 80000001 cycles: 37219300 heartbeat IPC: 2.14968 cumulative IPC: 2.14942 (Simulation time: 9 hr 49 min 3 sec) 
 Total Blocks : 262144 Invalid Blocks : 0
Heartbeat CPU 3 instructions: 80000001 cycles: 37219311 heartbeat IPC: 2.14968 cumulative IPC: 2.14942 (Simulation time: 9 hr 49 min 3 sec) 
 Total Blocks : 262144 Invalid Blocks : 0
Heartbeat CPU 6 instructions: 80000001 cycles: 37219517 heartbeat IPC: 2.14967 cumulative IPC: 2.14941 (Simulation time: 9 hr 49 min 4 sec) 
 Total Blocks : 262144 Invalid Blocks : 0
Heartbeat CPU 7 instructions: 80000001 cycles: 37219602 heartbeat IPC: 2.14964 cumulative IPC: 2.14941 (Simulation time: 9 hr 49 min 4 sec) 
 Total Blocks : 262144 Invalid Blocks : 0
Heartbeat CPU 5 instructions: 90000000 cycles: 41870696 heartbeat IPC: 2.1497 cumulative IPC: 2.14947 (Simulation time: 11 hr 50 min 37 sec) 
 Total Blocks : 262144 Invalid Blocks : 0
Heartbeat CPU 0 instructions: 90000000 cycles: 41870737 heartbeat IPC: 2.14969 cumulative IPC: 2.14947 (Simulation time: 11 hr 50 min 37 sec) 
 Total Blocks : 262144 Invalid Blocks : 0
Heartbeat CPU 1 instructions: 90000000 cycles: 41870755 heartbeat IPC: 2.14968 cumulative IPC: 2.14947 (Simulation time: 11 hr 50 min 37 sec) 
 Total Blocks : 262144 Invalid Blocks : 0
Heartbeat CPU 4 instructions: 90000000 cycles: 41871054 heartbeat IPC: 2.1497 cumulative IPC: 2.14946 (Simulation time: 11 hr 50 min 37 sec) 
 Total Blocks : 262144 Invalid Blocks : 0
Heartbeat CPU 2 instructions: 90000000 cycles: 41871155 heartbeat IPC: 2.14968 cumulative IPC: 2.14945 (Simulation time: 11 hr 50 min 37 sec) 
 Total Blocks : 262144 Invalid Blocks : 0
Heartbeat CPU 3 instructions: 90000000 cycles: 41871179 heartbeat IPC: 2.14967 cumulative IPC: 2.14945 (Simulation time: 11 hr 50 min 37 sec) 
 Total Blocks : 262144 Invalid Blocks : 0
Heartbeat CPU 6 instructions: 90000000 cycles: 41871375 heartbeat IPC: 2.14968 cumulative IPC: 2.14944 (Simulation time: 11 hr 50 min 38 sec) 
 Total Blocks : 262144 Invalid Blocks : 0
Heartbeat CPU 7 instructions: 90000000 cycles: 41871511 heartbeat IPC: 2.14965 cumulative IPC: 2.14943 (Simulation time: 11 hr 50 min 38 sec) 
 Total Blocks : 262144 Invalid Blocks : 0
Heartbeat CPU 5 instructions: 100000003 cycles: 46522505 heartbeat IPC: 2.1497 cumulative IPC: 2.1495 (Simulation time: 13 hr 53 min 56 sec) 
 Total Blocks : 262144 Invalid Blocks : 0
Heartbeat CPU 0 instructions: 100000003 cycles: 46522539 heartbeat IPC: 2.14971 cumulative IPC: 2.1495 (Simulation time: 13 hr 53 min 56 sec) 
 Total Blocks : 262144 Invalid Blocks : 0
Heartbeat CPU 1 instructions: 100000003 cycles: 46522586 heartbeat IPC: 2.14969 cumulative IPC: 2.14949 (Simulation time: 13 hr 53 min 56 sec) 
 Total Blocks : 262144 Invalid Blocks : 0
Heartbeat CPU 4 instructions: 100000003 cycles: 46522873 heartbeat IPC: 2.1497 cumulative IPC: 2.14948 (Simulation time: 13 hr 53 min 56 sec) 
 Total Blocks : 262144 Invalid Blocks : 0
Heartbeat CPU 2 instructions: 100000003 cycles: 46522978 heartbeat IPC: 2.1497 cumulative IPC: 2.14948 (Simulation time: 13 hr 53 min 57 sec) 
 Total Blocks : 262144 Invalid Blocks : 0
Heartbeat CPU 3 instructions: 100000003 cycles: 46523042 heartbeat IPC: 2.14968 cumulative IPC: 2.14947 (Simulation time: 13 hr 53 min 57 sec) 
 Total Blocks : 262144 Invalid Blocks : 0
Heartbeat CPU 6 instructions: 100000003 cycles: 46523271 heartbeat IPC: 2.14966 cumulative IPC: 2.14946 (Simulation time: 13 hr 53 min 57 sec) 
 Total Blocks : 262144 Invalid Blocks : 0
Heartbeat CPU 7 instructions: 100000003 cycles: 46523424 heartbeat IPC: 2.14965 cumulative IPC: 2.14945 (Simulation time: 13 hr 53 min 59 sec) 
 Total Blocks : 262144 Invalid Blocks : 0
Heartbeat CPU 5 instructions: 110000000 cycles: 51173832 heartbeat IPC: 2.14992 cumulative IPC: 2.14954 (Simulation time: 16 hr 7 min 47 sec) 
 Total Blocks : 262144 Invalid Blocks : 0
Heartbeat CPU 0 instructions: 110000000 cycles: 51173863 heartbeat IPC: 2.14992 cumulative IPC: 2.14953 (Simulation time: 16 hr 7 min 47 sec) 
 Total Blocks : 262144 Invalid Blocks : 0
Heartbeat CPU 1 instructions: 110000000 cycles: 51173927 heartbeat IPC: 2.14992 cumulative IPC: 2.14953 (Simulation time: 16 hr 7 min 47 sec) 
 Total Blocks : 262144 Invalid Blocks : 0
Heartbeat CPU 4 instructions: 110000000 cycles: 51174195 heartbeat IPC: 2.14993 cumulative IPC: 2.14952 (Simulation time: 16 hr 7 min 47 sec) 
 Total Blocks : 262144 Invalid Blocks : 0
Heartbeat CPU 2 instructions: 110000000 cycles: 51174296 heartbeat IPC: 2.14993 cumulative IPC: 2.14952 (Simulation time: 16 hr 7 min 47 sec) 
 Total Blocks : 262144 Invalid Blocks : 0
Heartbeat CPU 3 instructions: 110000000 cycles: 51174403 heartbeat IPC: 2.14991 cumulative IPC: 2.14951 (Simulation time: 16 hr 7 min 47 sec) 
 Total Blocks : 262144 Invalid Blocks : 0
Heartbeat CPU 6 instructions: 110000000 cycles: 51174653 heartbeat IPC: 2.1499 cumulative IPC: 2.1495 (Simulation time: 16 hr 7 min 47 sec) 
 Total Blocks : 262144 Invalid Blocks : 0
Heartbeat CPU 7 instructions: 110000000 cycles: 51174861 heartbeat IPC: 2.14987 cumulative IPC: 2.14949 (Simulation time: 16 hr 7 min 47 sec) 
 Total Blocks : 262144 Invalid Blocks : 0
Heartbeat CPU 5 instructions: 120000001 cycles: 55825743 heartbeat IPC: 2.14965 cumulative IPC: 2.14955 (Simulation time: 18 hr 32 min 13 sec) 
 Total Blocks : 262144 Invalid Blocks : 0
Heartbeat CPU 0 instructions: 120000001 cycles: 55825786 heartbeat IPC: 2.14965 cumulative IPC: 2.14954 (Simulation time: 18 hr 32 min 14 sec) 
 Total Blocks : 262144 Invalid Blocks : 0
Heartbeat CPU 1 instructions: 120000001 cycles: 55825877 heartbeat IPC: 2.14964 cumulative IPC: 2.14954 (Simulation time: 18 hr 32 min 15 sec) 
 Total Blocks : 262144 Invalid Blocks : 0
Heartbeat CPU 4 instructions: 120000001 cycles: 55826101 heartbeat IPC: 2.14966 cumulative IPC: 2.14953 (Simulation time: 18 hr 32 min 17 sec) 
 Total Blocks : 262144 Invalid Blocks : 0
Heartbeat CPU 2 instructions: 120000001 cycles: 55826228 heartbeat IPC: 2.14964 cumulative IPC: 2.14953 (Simulation time: 18 hr 32 min 17 sec) 
 Total Blocks : 262144 Invalid Blocks : 0
Heartbeat CPU 3 instructions: 120000001 cycles: 55826340 heartbeat IPC: 2.14964 cumulative IPC: 2.14952 (Simulation time: 18 hr 32 min 18 sec) 
 Total Blocks : 262144 Invalid Blocks : 0
Heartbeat CPU 6 instructions: 120000001 cycles: 55826626 heartbeat IPC: 2.14963 cumulative IPC: 2.14951 (Simulation time: 18 hr 32 min 18 sec) 
 Total Blocks : 262144 Invalid Blocks : 0
Heartbeat CPU 7 instructions: 120000001 cycles: 55826864 heartbeat IPC: 2.14961 cumulative IPC: 2.1495 (Simulation time: 18 hr 32 min 18 sec) 
 Total Blocks : 262144 Invalid Blocks : 0
Heartbeat CPU 5 instructions: 130000000 cycles: 60477636 heartbeat IPC: 2.14966 cumulative IPC: 2.14955 (Simulation time: 21 hr 7 min 21 sec) 
 Total Blocks : 262144 Invalid Blocks : 0
Heartbeat CPU 0 instructions: 130000000 cycles: 60477677 heartbeat IPC: 2.14966 cumulative IPC: 2.14955 (Simulation time: 21 hr 7 min 21 sec) 
 Total Blocks : 262144 Invalid Blocks : 0
Heartbeat CPU 1 instructions: 130000000 cycles: 60477772 heartbeat IPC: 2.14966 cumulative IPC: 2.14955 (Simulation time: 21 hr 7 min 21 sec) 
 Total Blocks : 262144 Invalid Blocks : 0
Heartbeat CPU 4 instructions: 130000000 cycles: 60477979 heartbeat IPC: 2.14967 cumulative IPC: 2.14954 (Simulation time: 21 hr 7 min 21 sec) 
 Total Blocks : 262144 Invalid Blocks : 0
Heartbeat CPU 2 instructions: 130000000 cycles: 60478128 heartbeat IPC: 2.14966 cumulative IPC: 2.14954 (Simulation time: 21 hr 7 min 21 sec) 
 Total Blocks : 262144 Invalid Blocks : 0
Heartbeat CPU 3 instructions: 130000000 cycles: 60478259 heartbeat IPC: 2.14965 cumulative IPC: 2.14953 (Simulation time: 21 hr 7 min 21 sec) 
 Total Blocks : 262144 Invalid Blocks : 0
Heartbeat CPU 6 instructions: 130000000 cycles: 60478575 heartbeat IPC: 2.14964 cumulative IPC: 2.14952 (Simulation time: 21 hr 7 min 21 sec) 
 Total Blocks : 262144 Invalid Blocks : 0
Heartbeat CPU 7 instructions: 130000000 cycles: 60478859 heartbeat IPC: 2.14962 cumulative IPC: 2.14951 (Simulation time: 21 hr 7 min 21 sec) 
 Total Blocks : 262144 Invalid Blocks : 0
Heartbeat CPU 5 instructions: 140000003 cycles: 65129640 heartbeat IPC: 2.14961 cumulative IPC: 2.14956 (Simulation time: 23 hr 21 min 34 sec) 
 Total Blocks : 262144 Invalid Blocks : 0
Heartbeat CPU 0 instructions: 140000003 cycles: 65129684 heartbeat IPC: 2.14961 cumulative IPC: 2.14956 (Simulation time: 23 hr 21 min 34 sec) 
 Total Blocks : 262144 Invalid Blocks : 0
Heartbeat CPU 1 instructions: 140000003 cycles: 65129809 heartbeat IPC: 2.1496 cumulative IPC: 2.14955 (Simulation time: 23 hr 21 min 34 sec) 
 Total Blocks : 262144 Invalid Blocks : 0
Heartbeat CPU 4 instructions: 140000003 cycles: 65129994 heartbeat IPC: 2.14961 cumulative IPC: 2.14955 (Simulation time: 23 hr 21 min 34 sec) 
 Total Blocks : 262144 Invalid Blocks : 0
Heartbeat CPU 2 instructions: 140000003 cycles: 65130152 heartbeat IPC: 2.1496 cumulative IPC: 2.14954 (Simulation time: 23 hr 21 min 34 sec) 
 Total Blocks : 262144 Invalid Blocks : 0
Heartbeat CPU 3 instructions: 140000003 cycles: 65130285 heartbeat IPC: 2.1496 cumulative IPC: 2.14954 (Simulation time: 23 hr 21 min 34 sec) 
 Total Blocks : 262144 Invalid Blocks : 0
Heartbeat CPU 6 instructions: 140000003 cycles: 65130611 heartbeat IPC: 2.1496 cumulative IPC: 2.14953 (Simulation time: 23 hr 21 min 34 sec) 
 Total Blocks : 262144 Invalid Blocks : 0
Heartbeat CPU 7 instructions: 140000003 cycles: 65130984 heartbeat IPC: 2.14956 cumulative IPC: 2.14951 (Simulation time: 23 hr 21 min 34 sec) 
 Total Blocks : 262144 Invalid Blocks : 0
Heartbeat CPU 5 instructions: 150000003 cycles: 69781489 heartbeat IPC: 2.14968 cumulative IPC: 2.14957 (Simulation time: 26 hr 3 min 22 sec) 
 Total Blocks : 262144 Invalid Blocks : 0
Heartbeat CPU 0 instructions: 150000003 cycles: 69781530 heartbeat IPC: 2.14968 cumulative IPC: 2.14957 (Simulation time: 26 hr 3 min 22 sec) 
 Total Blocks : 262144 Invalid Blocks : 0
Heartbeat CPU 1 instructions: 150000003 cycles: 69781675 heartbeat IPC: 2.14967 cumulative IPC: 2.14956 (Simulation time: 26 hr 3 min 22 sec) 
 Total Blocks : 262144 Invalid Blocks : 0
Heartbeat CPU 4 instructions: 150000003 cycles: 69781832 heartbeat IPC: 2.14969 cumulative IPC: 2.14956 (Simulation time: 26 hr 3 min 22 sec) 
 Total Blocks : 262144 Invalid Blocks : 0
Heartbeat CPU 2 instructions: 150000003 cycles: 69781994 heartbeat IPC: 2.14969 cumulative IPC: 2.14955 (Simulation time: 26 hr 3 min 22 sec) 
 Total Blocks : 262144 Invalid Blocks : 0
Heartbeat CPU 3 instructions: 150000003 cycles: 69782142 heartbeat IPC: 2.14968 cumulative IPC: 2.14955 (Simulation time: 26 hr 3 min 22 sec) 
 Total Blocks : 262144 Invalid Blocks : 0
Heartbeat CPU 6 instructions: 150000003 cycles: 69782482 heartbeat IPC: 2.14967 cumulative IPC: 2.14954 (Simulation time: 26 hr 3 min 22 sec) 
 Total Blocks : 262144 Invalid Blocks : 0
Heartbeat CPU 7 instructions: 150000003 cycles: 69782899 heartbeat IPC: 2.14965 cumulative IPC: 2.14952 (Simulation time: 26 hr 3 min 23 sec) 
 Total Blocks : 262144 Invalid Blocks : 0
Heartbeat CPU 5 instructions: 160000002 cycles: 74433557 heartbeat IPC: 2.14958 cumulative IPC: 2.14957 (Simulation time: 28 hr 39 min 9 sec) 
 Total Blocks : 262144 Invalid Blocks : 0
Heartbeat CPU 0 instructions: 160000002 cycles: 74433595 heartbeat IPC: 2.14958 cumulative IPC: 2.14957 (Simulation time: 28 hr 39 min 9 sec) 
 Total Blocks : 262144 Invalid Blocks : 0
Heartbeat CPU 1 instructions: 160000002 cycles: 74433769 heartbeat IPC: 2.14957 cumulative IPC: 2.14956 (Simulation time: 28 hr 39 min 9 sec) 
 Total Blocks : 262144 Invalid Blocks : 0
Heartbeat CPU 4 instructions: 160000002 cycles: 74433904 heartbeat IPC: 2.14958 cumulative IPC: 2.14956 (Simulation time: 28 hr 39 min 9 sec) 
 Total Blocks : 262144 Invalid Blocks : 0
Heartbeat CPU 2 instructions: 160000002 cycles: 74434075 heartbeat IPC: 2.14958 cumulative IPC: 2.14955 (Simulation time: 28 hr 39 min 9 sec) 
 Total Blocks : 262144 Invalid Blocks : 0
Heartbeat CPU 3 instructions: 160000002 cycles: 74434259 heartbeat IPC: 2.14956 cumulative IPC: 2.14955 (Simulation time: 28 hr 39 min 9 sec) 
 Total Blocks : 262144 Invalid Blocks : 0
Heartbeat CPU 6 instructions: 160000002 cycles: 74434614 heartbeat IPC: 2.14955 cumulative IPC: 2.14954 (Simulation time: 28 hr 39 min 9 sec) 
 Total Blocks : 262144 Invalid Blocks : 0
Heartbeat CPU 7 instructions: 160000002 cycles: 74435050 heartbeat IPC: 2.14954 cumulative IPC: 2.14952 (Simulation time: 28 hr 39 min 9 sec) 
 Total Blocks : 262144 Invalid Blocks : 0
Heartbeat CPU 5 instructions: 170000003 cycles: 79085292 heartbeat IPC: 2.14974 cumulative IPC: 2.14958 (Simulation time: 31 hr 20 min 55 sec) 
 Total Blocks : 262144 Invalid Blocks : 0
Heartbeat CPU 0 instructions: 170000003 cycles: 79085327 heartbeat IPC: 2.14974 cumulative IPC: 2.14958 (Simulation time: 31 hr 20 min 55 sec) 
 Total Blocks : 262144 Invalid Blocks : 0
Heartbeat CPU 1 instructions: 170000003 cycles: 79085540 heartbeat IPC: 2.14972 cumulative IPC: 2.14957 (Simulation time: 31 hr 20 min 55 sec) 
 Total Blocks : 262144 Invalid Blocks : 0
Heartbeat CPU 4 instructions: 170000003 cycles: 79085653 heartbeat IPC: 2.14973 cumulative IPC: 2.14957 (Simulation time: 31 hr 20 min 55 sec) 
 Total Blocks : 262144 Invalid Blocks : 0
Heartbeat CPU 2 instructions: 170000003 cycles: 79085839 heartbeat IPC: 2.14972 cumulative IPC: 2.14956 (Simulation time: 31 hr 20 min 55 sec) 
 Total Blocks : 262144 Invalid Blocks : 0
Heartbeat CPU 3 instructions: 170000003 cycles: 79086084 heartbeat IPC: 2.14969 cumulative IPC: 2.14956 (Simulation time: 31 hr 20 min 55 sec) 
 Total Blocks : 262144 Invalid Blocks : 0
Heartbeat CPU 6 instructions: 170000003 cycles: 79086414 heartbeat IPC: 2.14971 cumulative IPC: 2.14955 (Simulation time: 31 hr 20 min 55 sec) 
 Total Blocks : 262144 Invalid Blocks : 0
Heartbeat CPU 7 instructions: 170000003 cycles: 79086893 heartbeat IPC: 2.14969 cumulative IPC: 2.14953 (Simulation time: 31 hr 20 min 55 sec) 
 Total Blocks : 262144 Invalid Blocks : 0
Heartbeat CPU 5 instructions: 180000003 cycles: 83737202 heartbeat IPC: 2.14965 cumulative IPC: 2.14958 (Simulation time: 34 hr 11 min 56 sec) 
 Total Blocks : 262144 Invalid Blocks : 0
Heartbeat CPU 0 instructions: 180000003 cycles: 83737225 heartbeat IPC: 2.14966 cumulative IPC: 2.14958 (Simulation time: 34 hr 11 min 56 sec) 
 Total Blocks : 262144 Invalid Blocks : 0
Heartbeat CPU 1 instructions: 180000003 cycles: 83737471 heartbeat IPC: 2.14964 cumulative IPC: 2.14958 (Simulation time: 34 hr 11 min 56 sec) 
 Total Blocks : 262144 Invalid Blocks : 0
Heartbeat CPU 4 instructions: 180000003 cycles: 83737572 heartbeat IPC: 2.14965 cumulative IPC: 2.14957 (Simulation time: 34 hr 11 min 56 sec) 
 Total Blocks : 262144 Invalid Blocks : 0
Heartbeat CPU 2 instructions: 180000003 cycles: 83737778 heartbeat IPC: 2.14964 cumulative IPC: 2.14957 (Simulation time: 34 hr 11 min 56 sec) 
 Total Blocks : 262144 Invalid Blocks : 0
Heartbeat CPU 3 instructions: 180000003 cycles: 83738073 heartbeat IPC: 2.14962 cumulative IPC: 2.14956 (Simulation time: 34 hr 11 min 56 sec) 
 Total Blocks : 262144 Invalid Blocks : 0
Heartbeat CPU 6 instructions: 180000003 cycles: 83738366 heartbeat IPC: 2.14964 cumulative IPC: 2.14955 (Simulation time: 34 hr 11 min 56 sec) 
 Total Blocks : 262144 Invalid Blocks : 0
Heartbeat CPU 7 instructions: 180000003 cycles: 83738908 heartbeat IPC: 2.14961 cumulative IPC: 2.14954 (Simulation time: 34 hr 11 min 58 sec) 
 Total Blocks : 262144 Invalid Blocks : 0
Heartbeat CPU 5 instructions: 190000001 cycles: 88389166 heartbeat IPC: 2.14963 cumulative IPC: 2.14958 (Simulation time: 38 hr 9 min 5 sec) 
 Total Blocks : 262144 Invalid Blocks : 0
Heartbeat CPU 0 instructions: 190000001 cycles: 88389204 heartbeat IPC: 2.14962 cumulative IPC: 2.14958 (Simulation time: 38 hr 9 min 5 sec) 
 Total Blocks : 262144 Invalid Blocks : 0
Heartbeat CPU 1 instructions: 190000001 cycles: 88389439 heartbeat IPC: 2.14963 cumulative IPC: 2.14958 (Simulation time: 38 hr 9 min 5 sec) 
 Total Blocks : 262144 Invalid Blocks : 0
Heartbeat CPU 4 instructions: 190000001 cycles: 88389534 heartbeat IPC: 2.14963 cumulative IPC: 2.14958 (Simulation time: 38 hr 9 min 5 sec) 
 Total Blocks : 262144 Invalid Blocks : 0
Heartbeat CPU 2 instructions: 190000001 cycles: 88389757 heartbeat IPC: 2.14962 cumulative IPC: 2.14957 (Simulation time: 38 hr 9 min 5 sec) 
 Total Blocks : 262144 Invalid Blocks : 0
Heartbeat CPU 3 instructions: 190000001 cycles: 88390099 heartbeat IPC: 2.1496 cumulative IPC: 2.14956 (Simulation time: 38 hr 9 min 5 sec) 
 Total Blocks : 262144 Invalid Blocks : 0
Heartbeat CPU 6 instructions: 190000001 cycles: 88390358 heartbeat IPC: 2.14962 cumulative IPC: 2.14956 (Simulation time: 38 hr 9 min 10 sec) 
 Total Blocks : 262144 Invalid Blocks : 0
Heartbeat CPU 7 instructions: 190000001 cycles: 88390892 heartbeat IPC: 2.14962 cumulative IPC: 2.14954 (Simulation time: 38 hr 9 min 18 sec) 
 Total Blocks : 262144 Invalid Blocks : 0
Heartbeat CPU 5 instructions: 200000001 cycles: 93041260 heartbeat IPC: 2.14957 cumulative IPC: 2.14958 (Simulation time: 42 hr 14 min 8 sec) 
 Total Blocks : 262144 Invalid Blocks : 0
Heartbeat CPU 0 instructions: 200000001 cycles: 93041316 heartbeat IPC: 2.14956 cumulative IPC: 2.14958 (Simulation time: 42 hr 14 min 8 sec) 
 Total Blocks : 262144 Invalid Blocks : 0
Heartbeat CPU 1 instructions: 200000001 cycles: 93041570 heartbeat IPC: 2.14955 cumulative IPC: 2.14958 (Simulation time: 42 hr 14 min 8 sec) 
 Total Blocks : 262144 Invalid Blocks : 0
Heartbeat CPU 4 instructions: 200000001 cycles: 93041631 heartbeat IPC: 2.14957 cumulative IPC: 2.14958 (Simulation time: 42 hr 14 min 8 sec) 
 Total Blocks : 262144 Invalid Blocks : 0
Heartbeat CPU 2 instructions: 200000001 cycles: 93041872 heartbeat IPC: 2.14956 cumulative IPC: 2.14957 (Simulation time: 42 hr 14 min 8 sec) 
 Total Blocks : 262144 Invalid Blocks : 0
Heartbeat CPU 3 instructions: 200000001 cycles: 93042273 heartbeat IPC: 2.14953 cumulative IPC: 2.14956 (Simulation time: 42 hr 14 min 8 sec) 
 Total Blocks : 262144 Invalid Blocks : 0
Heartbeat CPU 6 instructions: 200000001 cycles: 93042482 heartbeat IPC: 2.14956 cumulative IPC: 2.14956 (Simulation time: 42 hr 14 min 8 sec) 
 Total Blocks : 262144 Invalid Blocks : 0
Heartbeat CPU 7 instructions: 200000001 cycles: 93043064 heartbeat IPC: 2.14953 cumulative IPC: 2.14954 (Simulation time: 42 hr 14 min 8 sec) 
 Total Blocks : 262144 Invalid Blocks : 0

Warmup complete CPU 0 instructions: 200003727 cycles: 93043064 (Simulation time: 42 hr 14 min 8 sec) 
Warmup complete CPU 1 instructions: 200003233 cycles: 93043064 (Simulation time: 42 hr 14 min 8 sec) 
Warmup complete CPU 2 instructions: 200002536 cycles: 93043064 (Simulation time: 42 hr 14 min 8 sec) 
Warmup complete CPU 3 instructions: 200001681 cycles: 93043064 (Simulation time: 42 hr 14 min 8 sec) 
Warmup complete CPU 4 instructions: 200003068 cycles: 93043064 (Simulation time: 42 hr 14 min 8 sec) 
Warmup complete CPU 5 instructions: 200003908 cycles: 93043064 (Simulation time: 42 hr 14 min 8 sec) 
Warmup complete CPU 6 instructions: 200001207 cycles: 93043064 (Simulation time: 42 hr 14 min 8 sec) 
Warmup complete CPU 7 instructions: 200000001 cycles: 93043064 (Simulation time: 42 hr 14 min 8 sec) 

Heartbeat CPU 0 instructions: 210000001 cycles: 102477193 heartbeat IPC: 1.05978 cumulative IPC: 1.05959 (Simulation time: 46 hr 30 min 7 sec) 
 Total Blocks : 262144 Invalid Blocks : 0
Heartbeat CPU 7 instructions: 210000001 cycles: 102493258 heartbeat IPC: 1.05818 cumulative IPC: 1.05818 (Simulation time: 46 hr 30 min 31 sec) 
 Total Blocks : 262144 Invalid Blocks : 0
Heartbeat CPU 6 instructions: 210000001 cycles: 102493679 heartbeat IPC: 1.05807 cumulative IPC: 1.058 (Simulation time: 46 hr 30 min 32 sec) 
 Total Blocks : 262144 Invalid Blocks : 0
Heartbeat CPU 2 instructions: 210000001 cycles: 102494019 heartbeat IPC: 1.05796 cumulative IPC: 1.05783 (Simulation time: 46 hr 30 min 35 sec) 
 Total Blocks : 262144 Invalid Blocks : 0
Heartbeat CPU 4 instructions: 210000001 cycles: 102494177 heartbeat IPC: 1.05792 cumulative IPC: 1.05775 (Simulation time: 46 hr 30 min 36 sec) 
 Total Blocks : 262144 Invalid Blocks : 0
Heartbeat CPU 5 instructions: 210000001 cycles: 102508705 heartbeat IPC: 1.05625 cumulative IPC: 1.05604 (Simulation time: 46 hr 31 min 1 sec) 
 Total Blocks : 262144 Invalid Blocks : 0
Heartbeat CPU 3 instructions: 210000001 cycles: 102509156 heartbeat IPC: 1.05631 cumulative IPC: 1.05622 (Simulation time: 46 hr 31 min 2 sec) 
 Total Blocks : 262144 Invalid Blocks : 0
Heartbeat CPU 1 instructions: 210000001 cycles: 102510142 heartbeat IPC: 1.05613 cumulative IPC: 1.05595 (Simulation time: 46 hr 31 min 2 sec) 
 Total Blocks : 262144 Invalid Blocks : 0
Heartbeat CPU 7 instructions: 220000000 cycles: 111888162 heartbeat IPC: 1.06441 cumulative IPC: 1.06128 (Simulation time: 51 hr 0 min 20 sec) 
 Total Blocks : 262144 Invalid Blocks : 0
Heartbeat CPU 0 instructions: 220000000 cycles: 111889314 heartbeat IPC: 1.06246 cumulative IPC: 1.06102 (Simulation time: 51 hr 0 min 20 sec) 
 Total Blocks : 262144 Invalid Blocks : 0
Heartbeat CPU 2 instructions: 220000000 cycles: 111889445 heartbeat IPC: 1.06435 cumulative IPC: 1.06108 (Simulation time: 51 hr 0 min 20 sec) 
 Total Blocks : 262144 Invalid Blocks : 0
Heartbeat CPU 1 instructions: 220000000 cycles: 111889720 heartbeat IPC: 1.06615 cumulative IPC: 1.06102 (Simulation time: 51 hr 0 min 20 sec) 
 Total Blocks : 262144 Invalid Blocks : 0
Heartbeat CPU 4 instructions: 220000000 cycles: 111904147 heartbeat IPC: 1.0627 cumulative IPC: 1.06022 (Simulation time: 51 hr 0 min 48 sec) 
 Total Blocks : 262144 Invalid Blocks : 0
Heartbeat CPU 6 instructions: 220000000 cycles: 111904678 heartbeat IPC: 1.06259 cumulative IPC: 1.06029 (Simulation time: 51 hr 0 min 48 sec) 
 Total Blocks : 262144 Invalid Blocks : 0
Heartbeat CPU 5 instructions: 220000000 cycles: 111906080 heartbeat IPC: 1.06413 cumulative IPC: 1.06007 (Simulation time: 51 hr 0 min 49 sec) 
 Total Blocks : 262144 Invalid Blocks : 0
Heartbeat CPU 3 instructions: 220000000 cycles: 111919179 heartbeat IPC: 1.0627 cumulative IPC: 1.05945 (Simulation time: 51 hr 1 min 11 sec) 
 Total Blocks : 262144 Invalid Blocks : 0
Heartbeat CPU 2 instructions: 230000001 cycles: 121239598 heartbeat IPC: 1.0695 cumulative IPC: 1.06387 (Simulation time: 55 hr 34 min 57 sec) 
 Total Blocks : 262144 Invalid Blocks : 0
Heartbeat CPU 7 instructions: 230000001 cycles: 121253866 heartbeat IPC: 1.06773 cumulative IPC: 1.06342 (Simulation time: 55 hr 35 min 21 sec) 
 Total Blocks : 262144 Invalid Blocks : 0
Heartbeat CPU 1 instructions: 230000001 cycles: 121254656 heartbeat IPC: 1.06781 cumulative IPC: 1.06328 (Simulation time: 55 hr 35 min 24 sec) 
 Total Blocks : 262144 Invalid Blocks : 0
Heartbeat CPU 5 instructions: 230000001 cycles: 121255275 heartbeat IPC: 1.06961 cumulative IPC: 1.06323 (Simulation time: 55 hr 35 min 28 sec) 
 Total Blocks : 262144 Invalid Blocks : 0
Heartbeat CPU 6 instructions: 230000001 cycles: 121255683 heartbeat IPC: 1.0694 cumulative IPC: 1.06331 (Simulation time: 55 hr 35 min 28 sec) 
 Total Blocks : 262144 Invalid Blocks : 0
Heartbeat CPU 0 instructions: 230000001 cycles: 121270080 heartbeat IPC: 1.06601 cumulative IPC: 1.06268 (Simulation time: 55 hr 35 min 55 sec) 
 Total Blocks : 262144 Invalid Blocks : 0
Heartbeat CPU 3 instructions: 230000001 cycles: 121270641 heartbeat IPC: 1.06935 cumulative IPC: 1.06273 (Simulation time: 55 hr 35 min 56 sec) 
 Total Blocks : 262144 Invalid Blocks : 0
Heartbeat CPU 4 instructions: 230000001 cycles: 121284562 heartbeat IPC: 1.06605 cumulative IPC: 1.06216 (Simulation time: 55 hr 36 min 21 sec) 
 Total Blocks : 262144 Invalid Blocks : 0
Heartbeat CPU 7 instructions: 240000001 cycles: 130538392 heartbeat IPC: 1.07706 cumulative IPC: 1.0668 (Simulation time: 60 hr 14 min 16 sec) 
 Total Blocks : 262144 Invalid Blocks : 0
Heartbeat CPU 2 instructions: 240000001 cycles: 130556914 heartbeat IPC: 1.07327 cumulative IPC: 1.06621 (Simulation time: 60 hr 14 min 36 sec) 
 Total Blocks : 262144 Invalid Blocks : 0
Heartbeat CPU 6 instructions: 240000001 cycles: 130581504 heartbeat IPC: 1.07229 cumulative IPC: 1.06554 (Simulation time: 60 hr 15 min 20 sec) 
 Total Blocks : 262144 Invalid Blocks : 0
Heartbeat CPU 5 instructions: 240000001 cycles: 130593726 heartbeat IPC: 1.07084 cumulative IPC: 1.06512 (Simulation time: 60 hr 15 min 42 sec) 
 Total Blocks : 262144 Invalid Blocks : 0
Heartbeat CPU 1 instructions: 240000001 cycles: 130595779 heartbeat IPC: 1.07054 cumulative IPC: 1.06508 (Simulation time: 60 hr 15 min 43 sec) 
 Total Blocks : 262144 Invalid Blocks : 0
Heartbeat CPU 3 instructions: 240000001 cycles: 130597248 heartbeat IPC: 1.0722 cumulative IPC: 1.06508 (Simulation time: 60 hr 15 min 44 sec) 
 Total Blocks : 262144 Invalid Blocks : 0
Heartbeat CPU 0 instructions: 240000001 cycles: 130597909 heartbeat IPC: 1.07206 cumulative IPC: 1.06501 (Simulation time: 60 hr 15 min 44 sec) 
 Total Blocks : 262144 Invalid Blocks : 0
Heartbeat CPU 4 instructions: 240000001 cycles: 130610922 heartbeat IPC: 1.07223 cumulative IPC: 1.06466 (Simulation time: 60 hr 16 min 3 sec) 
 Total Blocks : 262144 Invalid Blocks : 0
Heartbeat CPU 7 instructions: 250000003 cycles: 139828604 heartbeat IPC: 1.0764 cumulative IPC: 1.06871 (Simulation time: 64 hr 53 min 51 sec) 
 Total Blocks : 262144 Invalid Blocks : 0
Heartbeat CPU 2 instructions: 250000003 cycles: 139870110 heartbeat IPC: 1.07375 cumulative IPC: 1.0677 (Simulation time: 64 hr 55 min 17 sec) 
 Total Blocks : 262144 Invalid Blocks : 0
Heartbeat CPU 3 instructions: 250000003 cycles: 139873042 heartbeat IPC: 1.07808 cumulative IPC: 1.06766 (Simulation time: 64 hr 55 min 22 sec) 
 Total Blocks : 262144 Invalid Blocks : 0
Heartbeat CPU 6 instructions: 250000003 cycles: 139885737 heartbeat IPC: 1.07478 cumulative IPC: 1.06738 (Simulation time: 64 hr 55 min 46 sec) 
 Total Blocks : 262144 Invalid Blocks : 0
Heartbeat CPU 1 instructions: 250000003 cycles: 139900427 heartbeat IPC: 1.07473 cumulative IPC: 1.067 (Simulation time: 64 hr 56 min 13 sec) 
 Total Blocks : 262144 Invalid Blocks : 0
Heartbeat CPU 0 instructions: 250000003 cycles: 139915987 heartbeat IPC: 1.07318 cumulative IPC: 1.06663 (Simulation time: 64 hr 56 min 41 sec) 
 Total Blocks : 262144 Invalid Blocks : 0
Heartbeat CPU 5 instructions: 250000003 cycles: 139916141 heartbeat IPC: 1.07268 cumulative IPC: 1.06663 (Simulation time: 64 hr 56 min 42 sec) 
 Total Blocks : 262144 Invalid Blocks : 0
Heartbeat CPU 4 instructions: 250000003 cycles: 139916539 heartbeat IPC: 1.07462 cumulative IPC: 1.06664 (Simulation time: 64 hr 56 min 45 sec) 
 Total Blocks : 262144 Invalid Blocks : 0
Heartbeat CPU 7 instructions: 260000000 cycles: 149027909 heartbeat IPC: 1.08704 cumulative IPC: 1.07172 (Simulation time: 69 hr 12 min 28 sec) 
 Total Blocks : 262144 Invalid Blocks : 0
Heartbeat CPU 3 instructions: 260000000 cycles: 149129682 heartbeat IPC: 1.08031 cumulative IPC: 1.06974 (Simulation time: 69 hr 15 min 20 sec) 
 Total Blocks : 262144 Invalid Blocks : 0
Heartbeat CPU 6 instructions: 260000000 cycles: 149131855 heartbeat IPC: 1.08153 cumulative IPC: 1.06971 (Simulation time: 69 hr 15 min 23 sec) 
 Total Blocks : 262144 Invalid Blocks : 0
Heartbeat CPU 2 instructions: 260000000 cycles: 149159780 heartbeat IPC: 1.07646 cumulative IPC: 1.06915 (Simulation time: 69 hr 16 min 7 sec) 
 Total Blocks : 262144 Invalid Blocks : 0
Heartbeat CPU 4 instructions: 260000000 cycles: 149174792 heartbeat IPC: 1.08012 cumulative IPC: 1.06886 (Simulation time: 69 hr 16 min 30 sec) 
 Total Blocks : 262144 Invalid Blocks : 0
Heartbeat CPU 1 instructions: 260000000 cycles: 149188808 heartbeat IPC: 1.07661 cumulative IPC: 1.06859 (Simulation time: 69 hr 16 min 54 sec) 
 Total Blocks : 262144 Invalid Blocks : 0
Heartbeat CPU 5 instructions: 260000000 cycles: 149204413 heartbeat IPC: 1.07663 cumulative IPC: 1.06828 (Simulation time: 69 hr 17 min 19 sec) 
 Total Blocks : 262144 Invalid Blocks : 0
Heartbeat CPU 0 instructions: 260000000 cycles: 149206312 heartbeat IPC: 1.07639 cumulative IPC: 1.06825 (Simulation time: 69 hr 17 min 22 sec) 
 Total Blocks : 262144 Invalid Blocks : 0
Heartbeat CPU 7 instructions: 270000003 cycles: 158240307 heartbeat IPC: 1.08549 cumulative IPC: 1.07367 (Simulation time: 73 hr 32 min 20 sec) 
 Total Blocks : 262144 Invalid Blocks : 0
Heartbeat CPU 3 instructions: 270000003 cycles: 158327788 heartbeat IPC: 1.08718 cumulative IPC: 1.0722 (Simulation time: 73 hr 34 min 48 sec) 
 Total Blocks : 262144 Invalid Blocks : 0
Heartbeat CPU 6 instructions: 270000003 cycles: 158328153 heartbeat IPC: 1.08739 cumulative IPC: 1.0722 (Simulation time: 73 hr 34 min 48 sec) 
 Total Blocks : 262144 Invalid Blocks : 0
Heartbeat CPU 4 instructions: 270000003 cycles: 158357885 heartbeat IPC: 1.08896 cumulative IPC: 1.07169 (Simulation time: 73 hr 35 min 36 sec) 
 Total Blocks : 262144 Invalid Blocks : 0
Heartbeat CPU 2 instructions: 270000003 cycles: 158403918 heartbeat IPC: 1.08177 cumulative IPC: 1.07094 (Simulation time: 73 hr 36 min 47 sec) 
 Total Blocks : 262144 Invalid Blocks : 0
Heartbeat CPU 1 instructions: 270000003 cycles: 158419183 heartbeat IPC: 1.08338 cumulative IPC: 1.07068 (Simulation time: 73 hr 37 min 13 sec) 
 Total Blocks : 262144 Invalid Blocks : 0
Heartbeat CPU 5 instructions: 270000003 cycles: 158434005 heartbeat IPC: 1.08347 cumulative IPC: 1.07042 (Simulation time: 73 hr 37 min 38 sec) 
 Total Blocks : 262144 Invalid Blocks : 0
Heartbeat CPU 0 instructions: 270000000 cycles: 158450501 heartbeat IPC: 1.08176 cumulative IPC: 1.07016 (Simulation time: 73 hr 38 min 2 sec) 
 Total Blocks : 262144 Invalid Blocks : 0
Heartbeat CPU 7 instructions: 280000000 cycles: 167524804 heartbeat IPC: 1.07706 cumulative IPC: 1.07409 (Simulation time: 78 hr 1 min 14 sec) 
 Total Blocks : 262144 Invalid Blocks : 0
Heartbeat CPU 3 instructions: 280000000 cycles: 167584253 heartbeat IPC: 1.08033 cumulative IPC: 1.07321 (Simulation time: 78 hr 2 min 56 sec) 
 Total Blocks : 262144 Invalid Blocks : 0
Heartbeat CPU 6 instructions: 280000000 cycles: 167628991 heartbeat IPC: 1.07517 cumulative IPC: 1.07257 (Simulation time: 78 hr 4 min 11 sec) 
 Total Blocks : 262144 Invalid Blocks : 0
Heartbeat CPU 4 instructions: 280000000 cycles: 167659892 heartbeat IPC: 1.07504 cumulative IPC: 1.0721 (Simulation time: 78 hr 5 min 6 sec) 
 Total Blocks : 262144 Invalid Blocks : 0
Heartbeat CPU 2 instructions: 280000000 cycles: 167691412 heartbeat IPC: 1.07672 cumulative IPC: 1.07166 (Simulation time: 78 hr 5 min 57 sec) 
 Total Blocks : 262144 Invalid Blocks : 0
Heartbeat CPU 1 instructions: 280000000 cycles: 167704644 heartbeat IPC: 1.07695 cumulative IPC: 1.07146 (Simulation time: 78 hr 6 min 19 sec) 
 Total Blocks : 262144 Invalid Blocks : 0
Heartbeat CPU 5 instructions: 280000000 cycles: 167737372 heartbeat IPC: 1.07488 cumulative IPC: 1.07098 (Simulation time: 78 hr 7 min 17 sec) 
 Total Blocks : 262144 Invalid Blocks : 0
Heartbeat CPU 0 instructions: 280000000 cycles: 167737576 heartbeat IPC: 1.07677 cumulative IPC: 1.07098 (Simulation time: 78 hr 7 min 17 sec) 
 Total Blocks : 262144 Invalid Blocks : 0
Heartbeat CPU 7 instructions: 290000002 cycles: 176699384 heartbeat IPC: 1.08997 cumulative IPC: 1.07583 (Simulation time: 82 hr 39 min 12 sec) 
 Total Blocks : 262144 Invalid Blocks : 0
Heartbeat CPU 3 instructions: 290000002 cycles: 176788565 heartbeat IPC: 1.08645 cumulative IPC: 1.07466 (Simulation time: 82 hr 41 min 50 sec) 
 Total Blocks : 262144 Invalid Blocks : 0
Heartbeat CPU 6 instructions: 290000002 cycles: 176833538 heartbeat IPC: 1.08642 cumulative IPC: 1.07409 (Simulation time: 82 hr 43 min 8 sec) 
 Total Blocks : 262144 Invalid Blocks : 0
Heartbeat CPU 4 instructions: 290000002 cycles: 176862709 heartbeat IPC: 1.08662 cumulative IPC: 1.0737 (Simulation time: 82 hr 44 min 1 sec) 
 Total Blocks : 262144 Invalid Blocks : 0
Heartbeat CPU 2 instructions: 290000002 cycles: 176907127 heartbeat IPC: 1.0851 cumulative IPC: 1.07314 (Simulation time: 82 hr 45 min 18 sec) 
 Total Blocks : 262144 Invalid Blocks : 0
Heartbeat CPU 1 instructions: 290000002 cycles: 176923623 heartbeat IPC: 1.08472 cumulative IPC: 1.07292 (Simulation time: 82 hr 45 min 46 sec) 
 Total Blocks : 262144 Invalid Blocks : 0
Heartbeat CPU 5 instructions: 290000002 cycles: 176938044 heartbeat IPC: 1.08688 cumulative IPC: 1.07272 (Simulation time: 82 hr 46 min 11 sec) 
 Total Blocks : 262144 Invalid Blocks : 0
Heartbeat CPU 0 instructions: 290000002 cycles: 176938350 heartbeat IPC: 1.08687 cumulative IPC: 1.07272 (Simulation time: 82 hr 46 min 11 sec) 
 Total Blocks : 262144 Invalid Blocks : 0
Heartbeat CPU 7 instructions: 300000001 cycles: 185859041 heartbeat IPC: 1.09174 cumulative IPC: 1.0774 (Simulation time: 87 hr 26 min 19 sec) 
 Total Blocks : 262144 Invalid Blocks : 0
Heartbeat CPU 3 instructions: 300000001 cycles: 186001573 heartbeat IPC: 1.08542 cumulative IPC: 1.07573 (Simulation time: 87 hr 30 min 54 sec) 
 Total Blocks : 262144 Invalid Blocks : 0
Heartbeat CPU 6 instructions: 300000001 cycles: 186047782 heartbeat IPC: 1.08528 cumulative IPC: 1.0752 (Simulation time: 87 hr 32 min 27 sec) 
 Total Blocks : 262144 Invalid Blocks : 0
Heartbeat CPU 4 instructions: 300000001 cycles: 186060248 heartbeat IPC: 1.08725 cumulative IPC: 1.07504 (Simulation time: 87 hr 32 min 44 sec) 
 Total Blocks : 262144 Invalid Blocks : 0
Heartbeat CPU 2 instructions: 300000001 cycles: 186121324 heartbeat IPC: 1.08528 cumulative IPC: 1.07434 (Simulation time: 87 hr 34 min 37 sec) 
 Total Blocks : 262144 Invalid Blocks : 0
Heartbeat CPU 1 instructions: 300000001 cycles: 186135493 heartbeat IPC: 1.08556 cumulative IPC: 1.07417 (Simulation time: 87 hr 35 min 12 sec) 
 Total Blocks : 262144 Invalid Blocks : 0
Heartbeat CPU 0 instructions: 300000001 cycles: 186164198 heartbeat IPC: 1.08391 cumulative IPC: 1.07383 (Simulation time: 87 hr 36 min 7 sec) 
 Total Blocks : 262144 Invalid Blocks : 0
Heartbeat CPU 5 instructions: 300000001 cycles: 186165153 heartbeat IPC: 1.08376 cumulative IPC: 1.07382 (Simulation time: 87 hr 36 min 7 sec) 
 Total Blocks : 262144 Invalid Blocks : 0
Heartbeat CPU 7 instructions: 310000002 cycles: 195101204 heartbeat IPC: 1.082 cumulative IPC: 1.07782 (Simulation time: 92 hr 47 min 2 sec) 
 Total Blocks : 262144 Invalid Blocks : 0
Heartbeat CPU 6 instructions: 310000002 cycles: 195264941 heartbeat IPC: 1.08493 cumulative IPC: 1.07608 (Simulation time: 92 hr 52 min 27 sec) 
 Total Blocks : 262144 Invalid Blocks : 0
Heartbeat CPU 3 instructions: 310000002 cycles: 195266429 heartbeat IPC: 1.07935 cumulative IPC: 1.07606 (Simulation time: 92 hr 52 min 27 sec) 
 Total Blocks : 262144 Invalid Blocks : 0
Heartbeat CPU 4 instructions: 310000002 cycles: 195338161 heartbeat IPC: 1.07783 cumulative IPC: 1.07529 (Simulation time: 92 hr 54 min 41 sec) 
 Total Blocks : 262144 Invalid Blocks : 0
Heartbeat CPU 2 instructions: 310000002 cycles: 195351230 heartbeat IPC: 1.08343 cumulative IPC: 1.07516 (Simulation time: 92 hr 55 min 15 sec) 
 Total Blocks : 262144 Invalid Blocks : 0
Heartbeat CPU 1 instructions: 310000002 cycles: 195397074 heartbeat IPC: 1.07973 cumulative IPC: 1.07467 (Simulation time: 92 hr 56 min 35 sec) 
 Total Blocks : 262144 Invalid Blocks : 0
Heartbeat CPU 0 instructions: 310000002 cycles: 195409843 heartbeat IPC: 1.08159 cumulative IPC: 1.07453 (Simulation time: 92 hr 57 min 14 sec) 
 Total Blocks : 262144 Invalid Blocks : 0
Heartbeat CPU 5 instructions: 310000002 cycles: 195410657 heartbeat IPC: 1.08161 cumulative IPC: 1.07452 (Simulation time: 92 hr 57 min 14 sec) 
 Total Blocks : 262144 Invalid Blocks : 0
Heartbeat CPU 7 instructions: 320000000 cycles: 204296072 heartbeat IPC: 1.08756 cumulative IPC: 1.07862 (Simulation time: 97 hr 56 min 3 sec) 
 Total Blocks : 262144 Invalid Blocks : 0
Heartbeat CPU 6 instructions: 320000000 cycles: 204461600 heartbeat IPC: 1.08735 cumulative IPC: 1.07701 (Simulation time: 98 hr 1 min 35 sec) 
 Total Blocks : 262144 Invalid Blocks : 0
Heartbeat CPU 3 instructions: 320000000 cycles: 204462591 heartbeat IPC: 1.08741 cumulative IPC: 1.077 (Simulation time: 98 hr 1 min 36 sec) 
 Total Blocks : 262144 Invalid Blocks : 0
Heartbeat CPU 4 instructions: 320000000 cycles: 204536040 heartbeat IPC: 1.08721 cumulative IPC: 1.07627 (Simulation time: 98 hr 4 min 5 sec) 
 Total Blocks : 262144 Invalid Blocks : 0
Heartbeat CPU 2 instructions: 320000000 cycles: 204566806 heartbeat IPC: 1.08512 cumulative IPC: 1.07598 (Simulation time: 98 hr 5 min 6 sec) 
 Total Blocks : 262144 Invalid Blocks : 0
Heartbeat CPU 1 instructions: 320000000 cycles: 204611840 heartbeat IPC: 1.08521 cumulative IPC: 1.07554 (Simulation time: 98 hr 6 min 43 sec) 
 Total Blocks : 262144 Invalid Blocks : 0
Heartbeat CPU 5 instructions: 320000000 cycles: 204639963 heartbeat IPC: 1.0835 cumulative IPC: 1.07526 (Simulation time: 98 hr 7 min 39 sec) 
 Total Blocks : 262144 Invalid Blocks : 0
Heartbeat CPU 0 instructions: 320000000 cycles: 204653723 heartbeat IPC: 1.0818 cumulative IPC: 1.07513 (Simulation time: 98 hr 8 min 10 sec) 
 Total Blocks : 262144 Invalid Blocks : 0
Heartbeat CPU 7 instructions: 330000000 cycles: 213492944 heartbeat IPC: 1.08733 cumulative IPC: 1.07929 (Simulation time: 103 hr 15 min 3 sec) 
 Total Blocks : 262144 Invalid Blocks : 0
Heartbeat CPU 3 instructions: 330000000 cycles: 213624529 heartbeat IPC: 1.09147 cumulative IPC: 1.0781 (Simulation time: 103 hr 19 min 59 sec) 
 Total Blocks : 262144 Invalid Blocks : 0
Heartbeat CPU 6 instructions: 330000000 cycles: 213661307 heartbeat IPC: 1.08699 cumulative IPC: 1.07777 (Simulation time: 103 hr 21 min 20 sec) 
 Total Blocks : 262144 Invalid Blocks : 0
Heartbeat CPU 4 instructions: 330000000 cycles: 213714802 heartbeat IPC: 1.08947 cumulative IPC: 1.07728 (Simulation time: 103 hr 23 min 15 sec) 
 Total Blocks : 262144 Invalid Blocks : 0
Heartbeat CPU 2 instructions: 330000000 cycles: 213757511 heartbeat IPC: 1.08806 cumulative IPC: 1.0769 (Simulation time: 103 hr 25 min 1 sec) 
 Total Blocks : 262144 Invalid Blocks : 0
Heartbeat CPU 1 instructions: 330000000 cycles: 213784734 heartbeat IPC: 1.09017 cumulative IPC: 1.07665 (Simulation time: 103 hr 26 min 1 sec) 
 Total Blocks : 262144 Invalid Blocks : 0
Heartbeat CPU 0 instructions: 330000000 cycles: 213814723 heartbeat IPC: 1.09158 cumulative IPC: 1.07638 (Simulation time: 103 hr 27 min 13 sec) 
 Total Blocks : 262144 Invalid Blocks : 0
Heartbeat CPU 5 instructions: 330000000 cycles: 213820026 heartbeat IPC: 1.08932 cumulative IPC: 1.07633 (Simulation time: 103 hr 27 min 21 sec) 
 Total Blocks : 262144 Invalid Blocks : 0
Heartbeat CPU 7 instructions: 340000000 cycles: 222571007 heartbeat IPC: 1.10156 cumulative IPC: 1.08085 (Simulation time: 108 hr 41 min 34 sec) 
 Total Blocks : 262144 Invalid Blocks : 0
Heartbeat CPU 3 instructions: 340000000 cycles: 222767713 heartbeat IPC: 1.09371 cumulative IPC: 1.0792 (Simulation time: 108 hr 49 min 3 sec) 
 Total Blocks : 262144 Invalid Blocks : 0
Heartbeat CPU 6 instructions: 340000000 cycles: 222800010 heartbeat IPC: 1.09425 cumulative IPC: 1.07893 (Simulation time: 108 hr 50 min 23 sec) 
 Total Blocks : 262144 Invalid Blocks : 0
Heartbeat CPU 4 instructions: 340000000 cycles: 222856422 heartbeat IPC: 1.0939 cumulative IPC: 1.07845 (Simulation time: 108 hr 52 min 34 sec) 
 Total Blocks : 262144 Invalid Blocks : 0
Heartbeat CPU 2 instructions: 340000000 cycles: 222898132 heartbeat IPC: 1.09402 cumulative IPC: 1.07811 (Simulation time: 108 hr 54 min 1 sec) 
 Total Blocks : 262144 Invalid Blocks : 0
Heartbeat CPU 1 instructions: 340000000 cycles: 222929600 heartbeat IPC: 1.09351 cumulative IPC: 1.07784 (Simulation time: 108 hr 55 min 21 sec) 
 Total Blocks : 262144 Invalid Blocks : 0
Heartbeat CPU 0 instructions: 340000000 cycles: 222973307 heartbeat IPC: 1.09187 cumulative IPC: 1.07747 (Simulation time: 108 hr 56 min 57 sec) 
 Total Blocks : 262144 Invalid Blocks : 0
Heartbeat CPU 5 instructions: 340000000 cycles: 222986367 heartbeat IPC: 1.09095 cumulative IPC: 1.07736 (Simulation time: 108 hr 57 min 25 sec) 
 Total Blocks : 262144 Invalid Blocks : 0
Heartbeat CPU 7 instructions: 350000001 cycles: 231607014 heartbeat IPC: 1.10668 cumulative IPC: 1.08253 (Simulation time: 114 hr 18 min 18 sec) 
 Total Blocks : 262144 Invalid Blocks : 0
Heartbeat CPU 3 instructions: 350000001 cycles: 231833914 heartbeat IPC: 1.103 cumulative IPC: 1.08075 (Simulation time: 114 hr 27 min 21 sec) 
 Total Blocks : 262144 Invalid Blocks : 0
Heartbeat CPU 6 instructions: 350000001 cycles: 231892673 heartbeat IPC: 1.09979 cumulative IPC: 1.0803 (Simulation time: 114 hr 29 min 33 sec) 
 Total Blocks : 262144 Invalid Blocks : 0
Heartbeat CPU 4 instructions: 350000001 cycles: 231964235 heartbeat IPC: 1.09796 cumulative IPC: 1.07973 (Simulation time: 114 hr 32 min 20 sec) 
 Total Blocks : 262144 Invalid Blocks : 0
Heartbeat CPU 2 instructions: 350000001 cycles: 232009348 heartbeat IPC: 1.09755 cumulative IPC: 1.07938 (Simulation time: 114 hr 33 min 51 sec) 
 Total Blocks : 262144 Invalid Blocks : 0
Heartbeat CPU 1 instructions: 350000001 cycles: 232025549 heartbeat IPC: 1.09939 cumulative IPC: 1.07925 (Simulation time: 114 hr 34 min 31 sec) 
 Total Blocks : 262144 Invalid Blocks : 0
Heartbeat CPU 0 instructions: 350000001 cycles: 232071492 heartbeat IPC: 1.09912 cumulative IPC: 1.07889 (Simulation time: 114 hr 36 min 5 sec) 
 Total Blocks : 262144 Invalid Blocks : 0
Heartbeat CPU 5 instructions: 350000001 cycles: 232099799 heartbeat IPC: 1.09728 cumulative IPC: 1.07867 (Simulation time: 114 hr 37 min 8 sec) 
 Total Blocks : 262144 Invalid Blocks : 0
Heartbeat CPU 7 instructions: 360000001 cycles: 240560805 heartbeat IPC: 1.11685 cumulative IPC: 1.08462 (Simulation time: 120 hr 2 min 3 sec) 
 Total Blocks : 262144 Invalid Blocks : 0
Heartbeat CPU 3 instructions: 360000001 cycles: 240861761 heartbeat IPC: 1.10768 cumulative IPC: 1.0824 (Simulation time: 120 hr 13 min 52 sec) 
 Total Blocks : 262144 Invalid Blocks : 0
Heartbeat CPU 6 instructions: 360000001 cycles: 240875776 heartbeat IPC: 1.1132 cumulative IPC: 1.0823 (Simulation time: 120 hr 14 min 32 sec) 
 Total Blocks : 262144 Invalid Blocks : 0
Heartbeat CPU 4 instructions: 360000001 cycles: 240999875 heartbeat IPC: 1.10673 cumulative IPC: 1.08138 (Simulation time: 120 hr 19 min 23 sec) 
 Total Blocks : 262144 Invalid Blocks : 0
Heartbeat CPU 2 instructions: 360000001 cycles: 241069721 heartbeat IPC: 1.10371 cumulative IPC: 1.08087 (Simulation time: 120 hr 22 min 9 sec) 
 Total Blocks : 262144 Invalid Blocks : 0
Heartbeat CPU 1 instructions: 360000001 cycles: 241071241 heartbeat IPC: 1.1055 cumulative IPC: 1.08085 (Simulation time: 120 hr 22 min 10 sec) 
 Total Blocks : 262144 Invalid Blocks : 0
Heartbeat CPU 0 instructions: 360000001 cycles: 241129982 heartbeat IPC: 1.10394 cumulative IPC: 1.08042 (Simulation time: 120 hr 24 min 18 sec) 
 Total Blocks : 262144 Invalid Blocks : 0
Heartbeat CPU 5 instructions: 360000001 cycles: 241145611 heartbeat IPC: 1.10548 cumulative IPC: 1.08031 (Simulation time: 120 hr 24 min 55 sec) 
 Total Blocks : 262144 Invalid Blocks : 0
Heartbeat CPU 7 instructions: 370000001 cycles: 249567406 heartbeat IPC: 1.1103 cumulative IPC: 1.08609 (Simulation time: 125 hr 57 min 17 sec) 
 Total Blocks : 262144 Invalid Blocks : 0
Heartbeat CPU 6 instructions: 370000001 cycles: 249890567 heartbeat IPC: 1.10929 cumulative IPC: 1.08385 (Simulation time: 126 hr 10 min 35 sec) 
 Total Blocks : 262144 Invalid Blocks : 0
Heartbeat CPU 3 instructions: 370000001 cycles: 249892959 heartbeat IPC: 1.10727 cumulative IPC: 1.08383 (Simulation time: 126 hr 10 min 39 sec) 
 Total Blocks : 262144 Invalid Blocks : 0
Heartbeat CPU 4 instructions: 370000001 cycles: 250020503 heartbeat IPC: 1.10857 cumulative IPC: 1.08294 (Simulation time: 126 hr 15 min 49 sec) 
 Total Blocks : 262144 Invalid Blocks : 0
Heartbeat CPU 2 instructions: 370000001 cycles: 250104989 heartbeat IPC: 1.10677 cumulative IPC: 1.08236 (Simulation time: 126 hr 19 min 7 sec) 
 Total Blocks : 262144 Invalid Blocks : 0
Heartbeat CPU 1 instructions: 370000001 cycles: 250134713 heartbeat IPC: 1.10333 cumulative IPC: 1.08215 (Simulation time: 126 hr 20 min 20 sec) 
 Total Blocks : 262144 Invalid Blocks : 0
Heartbeat CPU 0 instructions: 370000001 cycles: 250161096 heartbeat IPC: 1.10728 cumulative IPC: 1.08197 (Simulation time: 126 hr 21 min 9 sec) 
 Total Blocks : 262144 Invalid Blocks : 0
Heartbeat CPU 5 instructions: 370000001 cycles: 250207770 heartbeat IPC: 1.10349 cumulative IPC: 1.08164 (Simulation time: 126 hr 22 min 59 sec) 
 Total Blocks : 262144 Invalid Blocks : 0
Heartbeat CPU 7 instructions: 380000001 cycles: 258617415 heartbeat IPC: 1.10497 cumulative IPC: 1.08712 (Simulation time: 132 hr 0 min 35 sec) 
 Total Blocks : 262144 Invalid Blocks : 0
Heartbeat CPU 3 instructions: 380000001 cycles: 258965824 heartbeat IPC: 1.10219 cumulative IPC: 1.08483 (Simulation time: 132 hr 15 min 29 sec) 
 Total Blocks : 262144 Invalid Blocks : 0
Heartbeat CPU 6 instructions: 380000001 cycles: 258967926 heartbeat IPC: 1.10164 cumulative IPC: 1.08482 (Simulation time: 132 hr 15 min 29 sec) 
 Total Blocks : 262144 Invalid Blocks : 0
Heartbeat CPU 4 instructions: 380000001 cycles: 259107725 heartbeat IPC: 1.10045 cumulative IPC: 1.0839 (Simulation time: 132 hr 21 min 21 sec) 
 Total Blocks : 262144 Invalid Blocks : 0
Heartbeat CPU 2 instructions: 380000001 cycles: 259164237 heartbeat IPC: 1.10384 cumulative IPC: 1.08353 (Simulation time: 132 hr 23 min 46 sec) 
 Total Blocks : 262144 Invalid Blocks : 0
Heartbeat CPU 1 instructions: 380000001 cycles: 259221603 heartbeat IPC: 1.10049 cumulative IPC: 1.08315 (Simulation time: 132 hr 26 min 16 sec) 
 Total Blocks : 262144 Invalid Blocks : 0
Heartbeat CPU 0 instructions: 380000001 cycles: 259226315 heartbeat IPC: 1.10312 cumulative IPC: 1.08312 (Simulation time: 132 hr 26 min 23 sec) 
 Total Blocks : 262144 Invalid Blocks : 0
Heartbeat CPU 5 instructions: 380000001 cycles: 259266730 heartbeat IPC: 1.10388 cumulative IPC: 1.08285 (Simulation time: 132 hr 27 min 55 sec) 
 Total Blocks : 262144 Invalid Blocks : 0
Heartbeat CPU 7 instructions: 390000001 cycles: 267562229 heartbeat IPC: 1.11797 cumulative IPC: 1.08871 (Simulation time: 138 hr 14 min 4 sec) 
 Total Blocks : 262144 Invalid Blocks : 0
Heartbeat CPU 3 instructions: 390000001 cycles: 267912007 heartbeat IPC: 1.1178 cumulative IPC: 1.08652 (Simulation time: 138 hr 29 min 17 sec) 
 Total Blocks : 262144 Invalid Blocks : 0
Heartbeat CPU 6 instructions: 390000001 cycles: 267927628 heartbeat IPC: 1.11611 cumulative IPC: 1.08642 (Simulation time: 138 hr 29 min 55 sec) 
 Total Blocks : 262144 Invalid Blocks : 0
Heartbeat CPU 4 instructions: 390000001 cycles: 268100583 heartbeat IPC: 1.11199 cumulative IPC: 1.08534 (Simulation time: 138 hr 37 min 25 sec) 
 Total Blocks : 262144 Invalid Blocks : 0
Heartbeat CPU 2 instructions: 390000001 cycles: 268141916 heartbeat IPC: 1.11387 cumulative IPC: 1.08509 (Simulation time: 138 hr 39 min 12 sec) 
 Total Blocks : 262144 Invalid Blocks : 0
Heartbeat CPU 0 instructions: 390000001 cycles: 268190635 heartbeat IPC: 1.11553 cumulative IPC: 1.08478 (Simulation time: 138 hr 41 min 20 sec) 
 Total Blocks : 262144 Invalid Blocks : 0
Heartbeat CPU 1 instructions: 390000001 cycles: 268213881 heartbeat IPC: 1.11207 cumulative IPC: 1.08464 (Simulation time: 138 hr 42 min 17 sec) 
 Total Blocks : 262144 Invalid Blocks : 0
Heartbeat CPU 5 instructions: 390000001 cycles: 268254439 heartbeat IPC: 1.11263 cumulative IPC: 1.08438 (Simulation time: 138 hr 44 min 2 sec) 
 Total Blocks : 262144 Invalid Blocks : 0
Heartbeat CPU 7 instructions: 400000000 cycles: 276462321 heartbeat IPC: 1.12358 cumulative IPC: 1.0904 (Simulation time: 144 hr 38 min 13 sec) 
 Total Blocks : 262144 Invalid Blocks : 0
Finished CPU 7 instructions: 200000003 cycles: 183419258 cumulative IPC: 1.0904 (Simulation time: 144 hr 38 min 13 sec) 
Heartbeat CPU 3 instructions: 400000000 cycles: 276824202 heartbeat IPC: 1.12206 cumulative IPC: 1.08824 (Simulation time: 144 hr 54 min 4 sec) 
 Total Blocks : 262144 Invalid Blocks : 0
Finished CPU 3 instructions: 200000003 cycles: 183783120 cumulative IPC: 1.08824 (Simulation time: 144 hr 54 min 12 sec) 
Heartbeat CPU 6 instructions: 400000000 cycles: 276853206 heartbeat IPC: 1.12038 cumulative IPC: 1.08807 (Simulation time: 144 hr 55 min 17 sec) 
 Total Blocks : 262144 Invalid Blocks : 0
Finished CPU 6 instructions: 200000002 cycles: 183812841 cumulative IPC: 1.08806 (Simulation time: 144 hr 55 min 24 sec) 
Heartbeat CPU 4 instructions: 400000000 cycles: 277079549 heartbeat IPC: 1.11371 cumulative IPC: 1.08672 (Simulation time: 145 hr 4 min 46 sec) 
 Total Blocks : 262144 Invalid Blocks : 0
Finished CPU 4 instructions: 200000001 cycles: 184039886 cumulative IPC: 1.08672 (Simulation time: 145 hr 4 min 55 sec) 
Heartbeat CPU 2 instructions: 400000000 cycles: 277138052 heartbeat IPC: 1.11159 cumulative IPC: 1.08638 (Simulation time: 145 hr 7 min 13 sec) 
 Total Blocks : 262144 Invalid Blocks : 0
Finished CPU 2 instructions: 200000001 cycles: 184097825 cumulative IPC: 1.08638 (Simulation time: 145 hr 7 min 21 sec) 
Heartbeat CPU 0 instructions: 400000000 cycles: 277152810 heartbeat IPC: 1.1158 cumulative IPC: 1.08629 (Simulation time: 145 hr 7 min 40 sec) 
 Total Blocks : 262144 Invalid Blocks : 0
Finished CPU 0 instructions: 200000001 cycles: 184113888 cumulative IPC: 1.08628 (Simulation time: 145 hr 7 min 45 sec) 
Heartbeat CPU 1 instructions: 400000000 cycles: 277198640 heartbeat IPC: 1.113 cumulative IPC: 1.08602 (Simulation time: 145 hr 9 min 42 sec) 
 Total Blocks : 262144 Invalid Blocks : 0
Finished CPU 1 instructions: 200000000 cycles: 184158859 cumulative IPC: 1.08602 (Simulation time: 145 hr 9 min 51 sec) 
Heartbeat CPU 5 instructions: 400000000 cycles: 277255906 heartbeat IPC: 1.11093 cumulative IPC: 1.08568 (Simulation time: 145 hr 12 min 8 sec) 
 Total Blocks : 262144 Invalid Blocks : 0
Finished CPU 5 instructions: 200000001 cycles: 184216405 cumulative IPC: 1.08568 (Simulation time: 145 hr 12 min 17 sec) 

CPU 0 Branch Prediction Accuracy: 99.93% MPKI: 0.0351499 Average ROB Occupancy at Mispredict: 340.109

CPU 1 Branch Prediction Accuracy: 99.93% MPKI: 0.0351482 Average ROB Occupancy at Mispredict: 340.056

CPU 2 Branch Prediction Accuracy: 99.93% MPKI: 0.035147 Average ROB Occupancy at Mispredict: 339.981

CPU 3 Branch Prediction Accuracy: 99.93% MPKI: 0.0351577 Average ROB Occupancy at Mispredict: 339.97

CPU 4 Branch Prediction Accuracy: 99.93% MPKI: 0.0351456 Average ROB Occupancy at Mispredict: 339.951

CPU 5 Branch Prediction Accuracy: 99.93% MPKI: 0.0351493 Average ROB Occupancy at Mispredict: 340.066

CPU 6 Branch Prediction Accuracy: 99.93% MPKI: 0.0351551 Average ROB Occupancy at Mispredict: 339.939

CPU 7 Branch Prediction Accuracy: 99.93% MPKI: 0.0351518 Average ROB Occupancy at Mispredict: 339.934

ChampSim completed all CPUs

Total Simulation Statistics (not including warmup)

CPU 0 cumulative IPC: 1.08628 instructions: 200110690 cycles: 184216405
ITLB TOTAL     ACCESS: 37196989  HIT: 37196989  MISS:     0  HIT %:   100  MISS %:     0  AVERAGE MISS PENALTY: 0
ITLB LOAD      ACCESS: 37196989  HIT: 37196989  MISS:     0  HIT %:   100  MISS %:     0  AVERAGE MISS PENALTY: 0
ITLB RFO       ACCESS:     0  HIT:     0  MISS:     0  HIT %:     0  MISS %:     0  AVERAGE MISS PENALTY: 0
ITLB PREFETCH  ACCESS:     0  HIT:     0  MISS:     0  HIT %:     0  MISS %:     0  AVERAGE MISS PENALTY: 0
ITLB WRITEBACK ACCESS:     0  HIT:     0  MISS:     0  HIT %:     0  MISS %:     0  AVERAGE MISS PENALTY: 0

DTLB TOTAL     ACCESS: 58120108  HIT: 58037439  MISS: 82669  HIT %: 99.8578  MISS %: 0.142238  AVERAGE MISS PENALTY: 187.961
DTLB LOAD      ACCESS: 51443800  HIT: 51361506  MISS: 82294  HIT %: 99.84  MISS %: 0.159969  AVERAGE MISS PENALTY: 188.377
DTLB RFO       ACCESS: 6676308  HIT: 6675933  MISS:   375  HIT %: 99.9944  MISS %: 0.00561688  AVERAGE MISS PENALTY: 96.7307
DTLB PREFETCH  ACCESS:     0  HIT:     0  MISS:     0  HIT %:     0  MISS %:     0  AVERAGE MISS PENALTY: 0
DTLB WRITEBACK ACCESS:     0  HIT:     0  MISS:     0  HIT %:     0  MISS %:     0  AVERAGE MISS PENALTY: 0

STLB TOTAL     ACCESS: 82669  HIT: 16869  MISS: 65800  HIT %: 20.4055  MISS %: 79.5945  AVERAGE MISS PENALTY: 100
STLB LOAD      ACCESS: 82294  HIT: 16821  MISS: 65473  HIT %: 20.4401  MISS %: 79.5599  AVERAGE MISS PENALTY: 100
STLB RFO       ACCESS:   375  HIT:    48  MISS:   327  HIT %:  12.8  MISS %:  87.2  AVERAGE MISS PENALTY: 100
STLB PREFETCH  ACCESS:     0  HIT:     0  MISS:     0  HIT %:     0  MISS %:     0  AVERAGE MISS PENALTY: 0
STLB WRITEBACK ACCESS:     0  HIT:     0  MISS:     0  HIT %:     0  MISS %:     0  AVERAGE MISS PENALTY: 0

L1D TOTAL     ACCESS: 64778562  HIT: 62081606  MISS: 2696956  HIT %: 95.8367  MISS %: 4.16335  AVERAGE MISS PENALTY: 2.24828e+06
L1D LOAD      ACCESS: 50385081  HIT: 50253109  MISS: 131972  HIT %: 99.7381  MISS %: 0.261927  AVERAGE MISS PENALTY: 4.59442e+07
L1D RFO       ACCESS: 6706077  HIT: 6685609  MISS: 20468  HIT %: 99.6948  MISS %: 0.305216  AVERAGE MISS PENALTY: 313.409
L1D PREFETCH  ACCESS: 7687404  HIT: 5142888  MISS: 2544516  HIT %: 66.9002  MISS %: 33.0998  AVERAGE MISS PENALTY: 67.2322
L1D WRITEBACK ACCESS:     0  HIT:     0  MISS:     0  HIT %:     0  MISS %:     0  AVERAGE MISS PENALTY: 0

L1I TOTAL     ACCESS: 47841306  HIT: 47841306  MISS:     0  HIT %:   100  MISS %:     0  AVERAGE MISS PENALTY: 0
L1I LOAD      ACCESS: 47841306  HIT: 47841306  MISS:     0  HIT %:   100  MISS %:     0  AVERAGE MISS PENALTY: 0
L1I RFO       ACCESS:     0  HIT:     0  MISS:     0  HIT %:     0  MISS %:     0  AVERAGE MISS PENALTY: 0
L1I PREFETCH  ACCESS:     0  HIT:     0  MISS:     0  HIT %:     0  MISS %:     0  AVERAGE MISS PENALTY: 0
L1I WRITEBACK ACCESS:     0  HIT:     0  MISS:     0  HIT %:     0  MISS %:     0  AVERAGE MISS PENALTY: 0

L2C TOTAL     ACCESS: 6359072  HIT: 3628955  MISS: 2730117  HIT %: 57.0674  MISS %: 42.9326  AVERAGE MISS PENALTY: 2.09153e+06
L2C LOAD      ACCESS: 129261  HIT: 10161  MISS: 119100  HIT %: 7.86084  MISS %: 92.1392  AVERAGE MISS PENALTY: 4.79363e+07
L2C RFO       ACCESS: 20468  HIT:   612  MISS: 19856  HIT %: 2.99003  MISS %: 97.01  AVERAGE MISS PENALTY: 305.148
L2C PREFETCH  ACCESS: 6158279  HIT: 3581295  MISS: 2576984  HIT %: 58.1542  MISS %: 41.8458  AVERAGE MISS PENALTY: 351.642
L2C WRITEBACK ACCESS: 51064  HIT: 36887  MISS: 14177  HIT %: 72.2368  MISS %: 27.7632  AVERAGE MISS PENALTY: 0


LLC0 TOTAL     ACCESS: 340284  HIT: 36264  MISS: 304020  HIT %: 10.657  MISS %: 89.343  AVERAGE MISS PENALTY: 339.76
LLC0 LOAD      ACCESS: 45017  HIT:  4761  MISS: 40256  HIT %: 10.576  MISS %: 89.424  AVERAGE MISS PENALTY: 348.874
LLC0 RFO       ACCESS:  2476  HIT:     1  MISS:  2475  HIT %: 0.0403877  MISS %: 99.9596  AVERAGE MISS PENALTY: 248.51
LLC0 PREFETCH  ACCESS: 290037  HIT: 30069  MISS: 259968  HIT %: 10.3673  MISS %: 89.6327  AVERAGE MISS PENALTY: 340.944
LLC0 WRITEBACK ACCESS:  2754  HIT:  1433  MISS:  1321  HIT %: 52.0334  MISS %: 47.9666  AVERAGE MISS PENALTY: 0

LLC1 TOTAL     ACCESS: 341189  HIT: 36686  MISS: 304503  HIT %: 10.7524  MISS %: 89.2476  AVERAGE MISS PENALTY: 340.258
LLC1 LOAD      ACCESS:  6153  HIT:   691  MISS:  5462  HIT %: 11.2303  MISS %: 88.7697  AVERAGE MISS PENALTY: 400.61
LLC1 RFO       ACCESS:  2471  HIT:     1  MISS:  2470  HIT %: 0.0404694  MISS %: 99.9595  AVERAGE MISS PENALTY: 251.084
LLC1 PREFETCH  ACCESS: 329504  HIT: 34300  MISS: 295204  HIT %: 10.4096  MISS %: 89.5904  AVERAGE MISS PENALTY: 341.463
LLC1 WRITEBACK ACCESS:  3061  HIT:  1694  MISS:  1367  HIT %: 55.3414  MISS %: 44.6586  AVERAGE MISS PENALTY: 0

LLC2 TOTAL     ACCESS: 342175  HIT: 36829  MISS: 305346  HIT %: 10.7632  MISS %: 89.2368  AVERAGE MISS PENALTY: 377.763
LLC2 LOAD      ACCESS:  6077  HIT:   696  MISS:  5381  HIT %: 11.453  MISS %: 88.547  AVERAGE MISS PENALTY: 363.907
LLC2 RFO       ACCESS:  2624  HIT:   120  MISS:  2504  HIT %: 4.57317  MISS %: 95.4268  AVERAGE MISS PENALTY: 265.627
LLC2 PREFETCH  ACCESS: 330466  HIT: 34321  MISS: 296145  HIT %: 10.3856  MISS %: 89.6144  AVERAGE MISS PENALTY: 380.641
LLC2 WRITEBACK ACCESS:  3008  HIT:  1692  MISS:  1316  HIT %: 56.25  MISS %: 43.75  AVERAGE MISS PENALTY: 0

LLC3 TOTAL     ACCESS: 342597  HIT: 36720  MISS: 305877  HIT %: 10.7181  MISS %: 89.2819  AVERAGE MISS PENALTY: 382.204
LLC3 LOAD      ACCESS:  6038  HIT:   667  MISS:  5371  HIT %: 11.0467  MISS %: 88.9533  AVERAGE MISS PENALTY: 357.857
LLC3 RFO       ACCESS:  2462  HIT:     0  MISS:  2462  HIT %:     0  MISS %:   100  AVERAGE MISS PENALTY: 266.963
LLC3 PREFETCH  ACCESS: 330979  HIT: 34312  MISS: 296667  HIT %: 10.3668  MISS %: 89.6332  AVERAGE MISS PENALTY: 385.375
LLC3 WRITEBACK ACCESS:  3118  HIT:  1741  MISS:  1377  HIT %: 55.8371  MISS %: 44.1629  AVERAGE MISS PENALTY: 0

LLC4 TOTAL     ACCESS: 343213  HIT: 36813  MISS: 306400  HIT %: 10.726  MISS %: 89.274  AVERAGE MISS PENALTY: 343.736
LLC4 LOAD      ACCESS:  6134  HIT:   738  MISS:  5396  HIT %: 12.0313  MISS %: 87.9687  AVERAGE MISS PENALTY: 392.865
LLC4 RFO       ACCESS:  2456  HIT:     0  MISS:  2456  HIT %:     0  MISS %:   100  AVERAGE MISS PENALTY: 253.605
LLC4 PREFETCH  ACCESS: 331789  HIT: 34507  MISS: 297282  HIT %: 10.4003  MISS %: 89.5997  AVERAGE MISS PENALTY: 345.052
LLC4 WRITEBACK ACCESS:  2834  HIT:  1568  MISS:  1266  HIT %: 55.3282  MISS %: 44.6718  AVERAGE MISS PENALTY: 0

LLC5 TOTAL     ACCESS: 343278  HIT: 37037  MISS: 306241  HIT %: 10.7892  MISS %: 89.2108  AVERAGE MISS PENALTY: 339.382
LLC5 LOAD      ACCESS:  6171  HIT:   778  MISS:  5393  HIT %: 12.6074  MISS %: 87.3926  AVERAGE MISS PENALTY: 406.38
LLC5 RFO       ACCESS:  2456  HIT:     0  MISS:  2456  HIT %:     0  MISS %:   100  AVERAGE MISS PENALTY: 263.81
LLC5 PREFETCH  ACCESS: 331722  HIT: 34568  MISS: 297154  HIT %: 10.4208  MISS %: 89.5792  AVERAGE MISS PENALTY: 340.205
LLC5 WRITEBACK ACCESS:  2929  HIT:  1691  MISS:  1238  HIT %: 57.733  MISS %: 42.267  AVERAGE MISS PENALTY: 0

LLC6 TOTAL     ACCESS: 343264  HIT: 36577  MISS: 306687  HIT %: 10.6556  MISS %: 89.3444  AVERAGE MISS PENALTY: 373.637
LLC6 LOAD      ACCESS:  6059  HIT:   690  MISS:  5369  HIT %: 11.388  MISS %: 88.612  AVERAGE MISS PENALTY: 365.784
LLC6 RFO       ACCESS:  2455  HIT:     0  MISS:  2455  HIT %:     0  MISS %:   100  AVERAGE MISS PENALTY: 275.555
LLC6 PREFETCH  ACCESS: 331990  HIT: 34449  MISS: 297541  HIT %: 10.3765  MISS %: 89.6235  AVERAGE MISS PENALTY: 376.248
LLC6 WRITEBACK ACCESS:  2760  HIT:  1438  MISS:  1322  HIT %: 52.1014  MISS %: 47.8986  AVERAGE MISS PENALTY: 0

LLC7 TOTAL     ACCESS: 343167  HIT: 36759  MISS: 306408  HIT %: 10.7117  MISS %: 89.2883  AVERAGE MISS PENALTY: 370.997
LLC7 LOAD      ACCESS:  5937  HIT:   611  MISS:  5326  HIT %: 10.2914  MISS %: 89.7086  AVERAGE MISS PENALTY: 364.422
LLC7 RFO       ACCESS:  2456  HIT:     1  MISS:  2455  HIT %: 0.0407166  MISS %: 99.9593  AVERAGE MISS PENALTY: 281.535
LLC7 PREFETCH  ACCESS: 332011  HIT: 34664  MISS: 297347  HIT %: 10.4406  MISS %: 89.5594  AVERAGE MISS PENALTY: 373.45
LLC7 WRITEBACK ACCESS:  2763  HIT:  1483  MISS:  1280  HIT %: 53.6735  MISS %: 46.3265  AVERAGE MISS PENALTY: 0

Total Rob stall cycles : 	138194106
Total Load Rob Stall cycles : 	42902196
Average Rob Stall cycles : 	 8
Average Load Rob Stall cycles : 	 14

CPU 1 cumulative IPC: 1.08603 instructions: 200064158 cycles: 184216405
ITLB TOTAL     ACCESS: 37188679  HIT: 37188679  MISS:     0  HIT %:   100  MISS %:     0  AVERAGE MISS PENALTY: 0
ITLB LOAD      ACCESS: 37188679  HIT: 37188679  MISS:     0  HIT %:   100  MISS %:     0  AVERAGE MISS PENALTY: 0
ITLB RFO       ACCESS:     0  HIT:     0  MISS:     0  HIT %:     0  MISS %:     0  AVERAGE MISS PENALTY: 0
ITLB PREFETCH  ACCESS:     0  HIT:     0  MISS:     0  HIT %:     0  MISS %:     0  AVERAGE MISS PENALTY: 0
ITLB WRITEBACK ACCESS:     0  HIT:     0  MISS:     0  HIT %:     0  MISS %:     0  AVERAGE MISS PENALTY: 0

DTLB TOTAL     ACCESS: 58107441  HIT: 58024789  MISS: 82652  HIT %: 99.8578  MISS %: 0.14224  AVERAGE MISS PENALTY: 187.939
DTLB LOAD      ACCESS: 51432230  HIT: 51349954  MISS: 82276  HIT %: 99.84  MISS %: 0.15997  AVERAGE MISS PENALTY: 188.357
DTLB RFO       ACCESS: 6675211  HIT: 6674835  MISS:   376  HIT %: 99.9944  MISS %: 0.00563278  AVERAGE MISS PENALTY: 96.4973
DTLB PREFETCH  ACCESS:     0  HIT:     0  MISS:     0  HIT %:     0  MISS %:     0  AVERAGE MISS PENALTY: 0
DTLB WRITEBACK ACCESS:     0  HIT:     0  MISS:     0  HIT %:     0  MISS %:     0  AVERAGE MISS PENALTY: 0

STLB TOTAL     ACCESS: 82652  HIT: 16870  MISS: 65782  HIT %: 20.4109  MISS %: 79.5891  AVERAGE MISS PENALTY: 100
STLB LOAD      ACCESS: 82276  HIT: 16821  MISS: 65455  HIT %: 20.4446  MISS %: 79.5554  AVERAGE MISS PENALTY: 100
STLB RFO       ACCESS:   376  HIT:    49  MISS:   327  HIT %: 13.0319  MISS %: 86.9681  AVERAGE MISS PENALTY: 100
STLB PREFETCH  ACCESS:     0  HIT:     0  MISS:     0  HIT %:     0  MISS %:     0  AVERAGE MISS PENALTY: 0
STLB WRITEBACK ACCESS:     0  HIT:     0  MISS:     0  HIT %:     0  MISS %:     0  AVERAGE MISS PENALTY: 0

L1D TOTAL     ACCESS: 64762535  HIT: 62066224  MISS: 2696311  HIT %: 95.8366  MISS %: 4.16338  AVERAGE MISS PENALTY: 2.27875e+06
L1D LOAD      ACCESS: 50373771  HIT: 50241626  MISS: 132145  HIT %: 99.7377  MISS %: 0.262329  AVERAGE MISS PENALTY: 4.64947e+07
L1D RFO       ACCESS: 6704422  HIT: 6683954  MISS: 20468  HIT %: 99.6947  MISS %: 0.305291  AVERAGE MISS PENALTY: 308.39
L1D PREFETCH  ACCESS: 7684342  HIT: 5140644  MISS: 2543698  HIT %: 66.8976  MISS %: 33.1024  AVERAGE MISS PENALTY: 66.8856
L1D WRITEBACK ACCESS:     0  HIT:     0  MISS:     0  HIT %:     0  MISS %:     0  AVERAGE MISS PENALTY: 0

L1I TOTAL     ACCESS: 47830473  HIT: 47830473  MISS:     0  HIT %:   100  MISS %:     0  AVERAGE MISS PENALTY: 0
L1I LOAD      ACCESS: 47830473  HIT: 47830473  MISS:     0  HIT %:   100  MISS %:     0  AVERAGE MISS PENALTY: 0
L1I RFO       ACCESS:     0  HIT:     0  MISS:     0  HIT %:     0  MISS %:     0  AVERAGE MISS PENALTY: 0
L1I PREFETCH  ACCESS:     0  HIT:     0  MISS:     0  HIT %:     0  MISS %:     0  AVERAGE MISS PENALTY: 0
L1I WRITEBACK ACCESS:     0  HIT:     0  MISS:     0  HIT %:     0  MISS %:     0  AVERAGE MISS PENALTY: 0

L2C TOTAL     ACCESS: 6356810  HIT: 3627745  MISS: 2729065  HIT %: 57.0686  MISS %: 42.9314  AVERAGE MISS PENALTY: 2.11551e+06
L2C LOAD      ACCESS: 129362  HIT: 10194  MISS: 119168  HIT %: 7.88021  MISS %: 92.1198  AVERAGE MISS PENALTY: 4.84397e+07
L2C RFO       ACCESS: 20468  HIT:   611  MISS: 19857  HIT %: 2.98515  MISS %: 97.0149  AVERAGE MISS PENALTY: 300.045
L2C PREFETCH  ACCESS: 6155908  HIT: 3580058  MISS: 2575850  HIT %: 58.1565  MISS %: 41.8435  AVERAGE MISS PENALTY: 351.218
L2C WRITEBACK ACCESS: 51072  HIT: 36882  MISS: 14190  HIT %: 72.2157  MISS %: 27.7843  AVERAGE MISS PENALTY: 0


LLC0 TOTAL     ACCESS: 340050  HIT: 36207  MISS: 303843  HIT %: 10.6476  MISS %: 89.3524  AVERAGE MISS PENALTY: 338.574
LLC0 LOAD      ACCESS: 44992  HIT:  4692  MISS: 40300  HIT %: 10.4285  MISS %: 89.5715  AVERAGE MISS PENALTY: 344.23
LLC0 RFO       ACCESS:  2475  HIT:     0  MISS:  2475  HIT %:     0  MISS %:   100  AVERAGE MISS PENALTY: 247.461
LLC0 PREFETCH  ACCESS: 289818  HIT: 30064  MISS: 259754  HIT %: 10.3734  MISS %: 89.6266  AVERAGE MISS PENALTY: 340.277
LLC0 WRITEBACK ACCESS:  2765  HIT:  1451  MISS:  1314  HIT %: 52.4774  MISS %: 47.5226  AVERAGE MISS PENALTY: 0

LLC1 TOTAL     ACCESS: 341072  HIT: 36651  MISS: 304421  HIT %: 10.7458  MISS %: 89.2542  AVERAGE MISS PENALTY: 338.772
LLC1 LOAD      ACCESS:  6117  HIT:   663  MISS:  5454  HIT %: 10.8386  MISS %: 89.1614  AVERAGE MISS PENALTY: 385.459
LLC1 RFO       ACCESS:  2471  HIT:     1  MISS:  2470  HIT %: 0.0404694  MISS %: 99.9595  AVERAGE MISS PENALTY: 249.381
LLC1 PREFETCH  ACCESS: 329400  HIT: 34244  MISS: 295156  HIT %: 10.3959  MISS %: 89.6041  AVERAGE MISS PENALTY: 340.197
LLC1 WRITEBACK ACCESS:  3084  HIT:  1743  MISS:  1341  HIT %: 56.5175  MISS %: 43.4825  AVERAGE MISS PENALTY: 0

LLC2 TOTAL     ACCESS: 342118  HIT: 36897  MISS: 305221  HIT %: 10.7849  MISS %: 89.2151  AVERAGE MISS PENALTY: 378.421
LLC2 LOAD      ACCESS:  6053  HIT:   722  MISS:  5331  HIT %: 11.928  MISS %: 88.072  AVERAGE MISS PENALTY: 357.632
LLC2 RFO       ACCESS:  2625  HIT:   127  MISS:  2498  HIT %: 4.8381  MISS %: 95.1619  AVERAGE MISS PENALTY: 262.219
LLC2 PREFETCH  ACCESS: 330407  HIT: 34337  MISS: 296070  HIT %: 10.3923  MISS %: 89.6077  AVERAGE MISS PENALTY: 381.466
LLC2 WRITEBACK ACCESS:  3033  HIT:  1711  MISS:  1322  HIT %: 56.4128  MISS %: 43.5872  AVERAGE MISS PENALTY: 0

LLC3 TOTAL     ACCESS: 342536  HIT: 36810  MISS: 305726  HIT %: 10.7463  MISS %: 89.2537  AVERAGE MISS PENALTY: 381.968
LLC3 LOAD      ACCESS:  6054  HIT:   684  MISS:  5370  HIT %: 11.2983  MISS %: 88.7017  AVERAGE MISS PENALTY: 362.095
LLC3 RFO       ACCESS:  2464  HIT:     1  MISS:  2463  HIT %: 0.0405844  MISS %: 99.9594  AVERAGE MISS PENALTY: 266.039
LLC3 PREFETCH  ACCESS: 330861  HIT: 34324  MISS: 296537  HIT %: 10.3741  MISS %: 89.6259  AVERAGE MISS PENALTY: 385.038
LLC3 WRITEBACK ACCESS:  3157  HIT:  1801  MISS:  1356  HIT %: 57.0478  MISS %: 42.9522  AVERAGE MISS PENALTY: 0

LLC4 TOTAL     ACCESS: 343112  HIT: 36791  MISS: 306321  HIT %: 10.7227  MISS %: 89.2773  AVERAGE MISS PENALTY: 342.761
LLC4 LOAD      ACCESS:  6133  HIT:   718  MISS:  5415  HIT %: 11.7072  MISS %: 88.2928  AVERAGE MISS PENALTY: 391.108
LLC4 RFO       ACCESS:  2456  HIT:     0  MISS:  2456  HIT %:     0  MISS %:   100  AVERAGE MISS PENALTY: 250.037
[...]
 TIMELY PREFETCHES:        433 LATE PREFETCHES: 0 DROPPED PREFETCHES: 0
LLC1 AVERAGE MISS LATENCY: 332.463 cycles
LLC2 TOTAL     ACCESS: 342037  HIT: 36903  MISS: 305134  HIT %: 10.7892  MISS %: 89.2108  AVERAGE MISS PENALTY: 367.746
LLC2 LOAD      ACCESS:  6058  HIT:   674  MISS:  5384  HIT %: 11.1258  MISS %: 88.8742  AVERAGE MISS PENALTY: 339.276
LLC2 RFO       ACCESS:  2623  HIT:   131  MISS:  2492  HIT %: 4.99428  MISS %: 95.0057  AVERAGE MISS PENALTY: 260.118
LLC2 PREFETCH  ACCESS: 330334  HIT: 34437  MISS: 295897  HIT %: 10.4249  MISS %: 89.5751  AVERAGE MISS PENALTY: 370.862
LLC2 WRITEBACK ACCESS:  3022  HIT:  1661  MISS:  1361  HIT %: 54.9636  MISS %: 45.0364  AVERAGE MISS PENALTY: 0
LLC2 PREFETCH  REQUESTED:     0  ISSUED:     0  USEFUL:   526  USELESS: 2370595
 USEFUL LOAD PREFETCHES:        526 PREFETCH ISSUED TO LOWER LEVEL:    2392922  ACCURACY: 0.0219815
 TIMELY PREFETCHES:        526 LATE PREFETCHES: 0 DROPPED PREFETCHES: 0
LLC2 AVERAGE MISS LATENCY: 367.746 cycles
LLC3 TOTAL     ACCESS: 342456  HIT: 36932  MISS: 305524  HIT %: 10.7845  MISS %: 89.2155  AVERAGE MISS PENALTY: 371.005
LLC3 LOAD      ACCESS:  6042  HIT:   690  MISS:  5352  HIT %: 11.4201  MISS %: 88.5799  AVERAGE MISS PENALTY: 341.551
LLC3 RFO       ACCESS:  2464  HIT:     2  MISS:  2462  HIT %: 0.0811688  MISS %: 99.9188  AVERAGE MISS PENALTY: 269.44
LLC3 PREFETCH  ACCESS: 330782  HIT: 34398  MISS: 296384  HIT %: 10.399  MISS %: 89.601  AVERAGE MISS PENALTY: 374.041
LLC3 WRITEBACK ACCESS:  3168  HIT:  1842  MISS:  1326  HIT %: 58.1439  MISS %: 41.8561  AVERAGE MISS PENALTY: 0
LLC3 PREFETCH  REQUESTED:     0  ISSUED:     0  USEFUL:   478  USELESS: 2374059
 USEFUL LOAD PREFETCHES:        478 PREFETCH ISSUED TO LOWER LEVEL:    2391969  ACCURACY: 0.0199835
 TIMELY PREFETCHES:        478 LATE PREFETCHES: 0 DROPPED PREFETCHES: 0
LLC3 AVERAGE MISS LATENCY: 371.005 cycles
LLC4 TOTAL     ACCESS: 343057  HIT: 36955  MISS: 306102  HIT %: 10.7723  MISS %: 89.2277  AVERAGE MISS PENALTY: 337.294
LLC4 LOAD      ACCESS:  6105  HIT:   719  MISS:  5386  HIT %: 11.7772  MISS %: 88.2228  AVERAGE MISS PENALTY: 377.951
LLC4 RFO       ACCESS:  2457  HIT:     1  MISS:  2456  HIT %: 0.0407  MISS %: 99.9593  AVERAGE MISS PENALTY: 264.321
LLC4 PREFETCH  ACCESS: 331635  HIT: 34681  MISS: 296954  HIT %: 10.4576  MISS %: 89.5424  AVERAGE MISS PENALTY: 338.644
LLC4 WRITEBACK ACCESS:  2860  HIT:  1554  MISS:  1306  HIT %: 54.3357  MISS %: 45.6643  AVERAGE MISS PENALTY: 0
LLC4 PREFETCH  REQUESTED:     0  ISSUED:     0  USEFUL:   487  USELESS: 2379140
 USEFUL LOAD PREFETCHES:        487 PREFETCH ISSUED TO LOWER LEVEL:    2418272  ACCURACY: 0.0201383
 TIMELY PREFETCHES:        487 LATE PREFETCHES: 0 DROPPED PREFETCHES: 0
LLC4 AVERAGE MISS LATENCY: 337.294 cycles
LLC5 TOTAL     ACCESS: 343226  HIT: 37213  MISS: 306013  HIT %: 10.8421  MISS %: 89.1579  AVERAGE MISS PENALTY: 331.18
LLC5 LOAD      ACCESS:  6193  HIT:   764  MISS:  5429  HIT %: 12.3365  MISS %: 87.6635  AVERAGE MISS PENALTY: 386.197
LLC5 RFO       ACCESS:  2456  HIT:     1  MISS:  2455  HIT %: 0.0407166  MISS %: 99.9593  AVERAGE MISS PENALTY: 274.024
LLC5 PREFETCH  ACCESS: 331607  HIT: 34719  MISS: 296888  HIT %: 10.4699  MISS %: 89.5301  AVERAGE MISS PENALTY: 332.031
LLC5 WRITEBACK ACCESS:  2970  HIT:  1729  MISS:  1241  HIT %: 58.2155  MISS %: 41.7845  AVERAGE MISS PENALTY: 0
LLC5 PREFETCH  REQUESTED:     0  ISSUED:     0  USEFUL:   633  USELESS: 2378339
 USEFUL LOAD PREFETCHES:        633 PREFETCH ISSUED TO LOWER LEVEL:    2410419  ACCURACY: 0.026261
 TIMELY PREFETCHES:        633 LATE PREFETCHES: 0 DROPPED PREFETCHES: 0
LLC5 AVERAGE MISS LATENCY: 331.18 cycles
LLC6 TOTAL     ACCESS: 343080  HIT: 36743  MISS: 306337  HIT %: 10.7097  MISS %: 89.2903  AVERAGE MISS PENALTY: 362.795
LLC6 LOAD      ACCESS:  6068  HIT:   707  MISS:  5361  HIT %: 11.6513  MISS %: 88.3487  AVERAGE MISS PENALTY: 339.458
LLC6 RFO       ACCESS:  2457  HIT:     1  MISS:  2456  HIT %: 0.0407  MISS %: 99.9593  AVERAGE MISS PENALTY: 275.031
LLC6 PREFETCH  ACCESS: 331770  HIT: 34501  MISS: 297269  HIT %: 10.3991  MISS %: 89.6009  AVERAGE MISS PENALTY: 365.467
LLC6 WRITEBACK ACCESS:  2785  HIT:  1534  MISS:  1251  HIT %: 55.0808  MISS %: 44.9192  AVERAGE MISS PENALTY: 0
LLC6 PREFETCH  REQUESTED:     0  ISSUED:     0  USEFUL:   536  USELESS: 2380158
 USEFUL LOAD PREFETCHES:        536 PREFETCH ISSUED TO LOWER LEVEL:    2432076  ACCURACY: 0.0220388
 TIMELY PREFETCHES:        536 LATE PREFETCHES: 0 DROPPED PREFETCHES: 0
LLC6 AVERAGE MISS LATENCY: 362.795 cycles
LLC7 TOTAL     ACCESS: 342944  HIT: 36866  MISS: 306078  HIT %: 10.7499  MISS %: 89.2501  AVERAGE MISS PENALTY: 359.782
LLC7 LOAD      ACCESS:  5928  HIT:   612  MISS:  5316  HIT %: 10.3239  MISS %: 89.6761  AVERAGE MISS PENALTY: 331.392
LLC7 RFO       ACCESS:  2457  HIT:     1  MISS:  2456  HIT %: 0.0407  MISS %: 99.9593  AVERAGE MISS PENALTY: 282.807
LLC7 PREFETCH  ACCESS: 331784  HIT: 34703  MISS: 297081  HIT %: 10.4595  MISS %: 89.5405  AVERAGE MISS PENALTY: 362.41
LLC7 WRITEBACK ACCESS:  2775  HIT:  1550  MISS:  1225  HIT %: 55.8559  MISS %: 44.1441  AVERAGE MISS PENALTY: 0
LLC7 PREFETCH  REQUESTED:     0  ISSUED:     0  USEFUL:   551  USELESS: 2379773
 USEFUL LOAD PREFETCHES:        551 PREFETCH ISSUED TO LOWER LEVEL:    2425298  ACCURACY: 0.0227189
 TIMELY PREFETCHES:        551 LATE PREFETCHES: 0 DROPPED PREFETCHES: 0
LLC7 AVERAGE MISS LATENCY: 359.782 cycles
ROI Average ROB Stall Cycles:	8.34407
ROI Total ROB Stalls Cycles:	137813919
ROI TOTAL ROB counter      :	16516386
ROI Average Load ROB Stall Cycles:	14.3316
ROI Total Load ROB Stalls Cycle  :	42580580
ROI Total Load ROB stalls Counter:	2971089
Major fault: 0 Minor fault: 131659

CPU 7 cumulative IPC: 1.0904 instructions: 200000003 cycles: 183419258
ITLB TOTAL     ACCESS: 37172363  HIT: 37172363  MISS:     0  HIT %:   100  MISS %:     0  AVERAGE MISS PENALTY: 0
ITLB LOAD      ACCESS: 37172363  HIT: 37172363  MISS:     0  HIT %:   100  MISS %:     0  AVERAGE MISS PENALTY: 0
ITLB RFO       ACCESS:     0  HIT:     0  MISS:     0  HIT %:     0  MISS %:     0  AVERAGE MISS PENALTY: 0
ITLB PREFETCH  ACCESS:     0  HIT:     0  MISS:     0  HIT %:     0  MISS %:     0  AVERAGE MISS PENALTY: 0
ITLB WRITEBACK ACCESS:     0  HIT:     0  MISS:     0  HIT %:     0  MISS %:     0  AVERAGE MISS PENALTY: 0
ITLB PREFETCH  REQUESTED:     0  ISSUED:     0  USEFUL:     0  USELESS:     0
 USEFUL LOAD PREFETCHES:          0 PREFETCH ISSUED TO LOWER LEVEL:          0  ACCURACY: -nan
 TIMELY PREFETCHES:          0 LATE PREFETCHES: 0 DROPPED PREFETCHES: 0
ITLB AVERAGE MISS LATENCY: -nan cycles
DTLB TOTAL     ACCESS: 58089511  HIT: 58006888  MISS: 82623  HIT %: 99.8578  MISS %: 0.142234  AVERAGE MISS PENALTY: 187.9
DTLB LOAD      ACCESS: 51415974  HIT: 51333726  MISS: 82248  HIT %: 99.84  MISS %: 0.159966  AVERAGE MISS PENALTY: 188.316
DTLB RFO       ACCESS: 6673537  HIT: 6673162  MISS:   375  HIT %: 99.9944  MISS %: 0.00561921  AVERAGE MISS PENALTY: 96.7307
DTLB PREFETCH  ACCESS:     0  HIT:     0  MISS:     0  HIT %:     0  MISS %:     0  AVERAGE MISS PENALTY: 0
DTLB WRITEBACK ACCESS:     0  HIT:     0  MISS:     0  HIT %:     0  MISS %:     0  AVERAGE MISS PENALTY: 0
DTLB PREFETCH  REQUESTED:     0  ISSUED:     0  USEFUL:     0  USELESS:     0
 USEFUL LOAD PREFETCHES:          0 PREFETCH ISSUED TO LOWER LEVEL:          0  ACCURACY: -nan
 TIMELY PREFETCHES:          0 LATE PREFETCHES: 0 DROPPED PREFETCHES: 0
DTLB AVERAGE MISS LATENCY: 187.9 cycles
STLB TOTAL     ACCESS: 82623  HIT: 16862  MISS: 65761  HIT %: 20.4084  MISS %: 79.5916  AVERAGE MISS PENALTY: 100
STLB LOAD      ACCESS: 82248  HIT: 16814  MISS: 65434  HIT %: 20.4431  MISS %: 79.5569  AVERAGE MISS PENALTY: 100
STLB RFO       ACCESS:   375  HIT:    48  MISS:   327  HIT %:  12.8  MISS %:  87.2  AVERAGE MISS PENALTY: 100
STLB PREFETCH  ACCESS:     0  HIT:     0  MISS:     0  HIT %:     0  MISS %:     0  AVERAGE MISS PENALTY: 0
STLB WRITEBACK ACCESS:     0  HIT:     0  MISS:     0  HIT %:     0  MISS %:     0  AVERAGE MISS PENALTY: 0
STLB PREFETCH  REQUESTED:     0  ISSUED:     0  USEFUL:     0  USELESS:     0
 USEFUL LOAD PREFETCHES:          0 PREFETCH ISSUED TO LOWER LEVEL:          0  ACCURACY: -nan
 TIMELY PREFETCHES:          0 LATE PREFETCHES: 0 DROPPED PREFETCHES: 0
STLB AVERAGE MISS LATENCY: 100 cycles
L1D TOTAL     ACCESS: 64746936  HIT: 62051455  MISS: 2695481  HIT %: 95.8369  MISS %: 4.1631  AVERAGE MISS PENALTY: 2.22297e+06
L1D LOAD      ACCESS: 50360187  HIT: 50228519  MISS: 131668  HIT %: 99.7385  MISS %: 0.261453  AVERAGE MISS PENALTY: 4.55068e+07
L1D RFO       ACCESS: 6702726  HIT: 6682258  MISS: 20468  HIT %: 99.6946  MISS %: 0.305368  AVERAGE MISS PENALTY: 322.512
L1D PREFETCH  ACCESS: 7684023  HIT: 5140678  MISS: 2543345  HIT %: 66.9009  MISS %: 33.0991  AVERAGE MISS PENALTY: 65.5731
L1D WRITEBACK ACCESS:     0  HIT:     0  MISS:     0  HIT %:     0  MISS %:     0  AVERAGE MISS PENALTY: 0
L1D PREFETCH  REQUESTED: 8281509  ISSUED: 7939757  USEFUL: 2462797  USELESS: 80556
 USEFUL LOAD PREFETCHES:    2462797 PREFETCH ISSUED TO LOWER LEVEL:    4130223  ACCURACY: 59.6287
 TIMELY PREFETCHES:    2462797 LATE PREFETCHES: 41756 DROPPED PREFETCHES: 341752
L1D AVERAGE MISS LATENCY: 79.8893 cycles
L1I TOTAL     ACCESS: 47809901  HIT: 47809901  MISS:     0  HIT %:   100  MISS %:     0  AVERAGE MISS PENALTY: 0
L1I LOAD      ACCESS: 47809901  HIT: 47809901  MISS:     0  HIT %:   100  MISS %:     0  AVERAGE MISS PENALTY: 0
L1I RFO       ACCESS:     0  HIT:     0  MISS:     0  HIT %:     0  MISS %:     0  AVERAGE MISS PENALTY: 0
L1I PREFETCH  ACCESS:     0  HIT:     0  MISS:     0  HIT %:     0  MISS %:     0  AVERAGE MISS PENALTY: 0
L1I WRITEBACK ACCESS:     0  HIT:     0  MISS:     0  HIT %:     0  MISS %:     0  AVERAGE MISS PENALTY: 0
L1I PREFETCH  REQUESTED:     0  ISSUED:     0  USEFUL:     0  USELESS:     0
 USEFUL LOAD PREFETCHES:          0 PREFETCH ISSUED TO LOWER LEVEL:          0  ACCURACY: -nan
 TIMELY PREFETCHES:          0 LATE PREFETCHES: 0 DROPPED PREFETCHES: 0
L1I AVERAGE MISS LATENCY: -nan cycles
L2C TOTAL     ACCESS: 6397606  HIT: 3669383  MISS: 2728223  HIT %: 57.3556  MISS %: 42.6444  AVERAGE MISS PENALTY: 2.06589e+06
L2C LOAD      ACCESS: 128909  HIT: 10180  MISS: 118729  HIT %: 7.89704  MISS %: 92.103  AVERAGE MISS PENALTY: 4.74636e+07
L2C RFO       ACCESS: 20468  HIT:   608  MISS: 19860  HIT %: 2.97049  MISS %: 97.0295  AVERAGE MISS PENALTY: 314.691
L2C PREFETCH  ACCESS: 6197192  HIT: 3621617  MISS: 2575575  HIT %: 58.4396  MISS %: 41.5604  AVERAGE MISS PENALTY: 341.963
L2C WRITEBACK ACCESS: 51037  HIT: 36978  MISS: 14059  HIT %: 72.4533  MISS %: 27.5467  AVERAGE MISS PENALTY: 0
L2C PREFETCH  REQUESTED: 4788525  ISSUED: 4788237  USEFUL:  4119  USELESS: 2571049
 USEFUL LOAD PREFETCHES:       4119 PREFETCH ISSUED TO LOWER LEVEL:    3373327  ACCURACY: 0.122105
 TIMELY PREFETCHES:       4119 LATE PREFETCHES: 39494 DROPPED PREFETCHES: 288
L2C AVERAGE MISS LATENCY: 339.191 cycles
LLC0 TOTAL     ACCESS: 340035  HIT: 36216  MISS: 303819  HIT %: 10.6507  MISS %: 89.3493  AVERAGE MISS PENALTY: 331.026
LLC0 LOAD      ACCESS: 44983  HIT:  4755  MISS: 40228  HIT %: 10.5707  MISS %: 89.4293  AVERAGE MISS PENALTY: 326.88
LLC0 RFO       ACCESS:  2477  HIT:     2  MISS:  2475  HIT %: 0.0807428  MISS %: 99.9193  AVERAGE MISS PENALTY: 259.327
LLC0 PREFETCH  ACCESS: 289809  HIT: 30016  MISS: 259793  HIT %: 10.3572  MISS %: 89.6428  AVERAGE MISS PENALTY: 334.037
LLC0 WRITEBACK ACCESS:  2766  HIT:  1443  MISS:  1323  HIT %: 52.1692  MISS %: 47.8308  AVERAGE MISS PENALTY: 0
LLC0 PREFETCH  REQUESTED:     0  ISSUED:     0  USEFUL:   521  USELESS: 2080089
 USEFUL LOAD PREFETCHES:        521 PREFETCH ISSUED TO LOWER LEVEL:    2099910  ACCURACY: 0.0248106
 TIMELY PREFETCHES:        521 LATE PREFETCHES: 0 DROPPED PREFETCHES: 0
LLC0 AVERAGE MISS LATENCY: 331.026 cycles
Deadblocks : 317432 Deadblock percentage : 789.082

LLC1 TOTAL     ACCESS: 341053  HIT: 36506  MISS: 304547  HIT %: 10.7039  MISS %: 89.2961  AVERAGE MISS PENALTY: 332.525
LLC1 LOAD      ACCESS:  6143  HIT:   652  MISS:  5491  HIT %: 10.6137  MISS %: 89.3863  AVERAGE MISS PENALTY: 353.501
LLC1 RFO       ACCESS:  2471  HIT:     1  MISS:  2470  HIT %: 0.0404694  MISS %: 99.9595  AVERAGE MISS PENALTY: 264.22
LLC1 PREFETCH  ACCESS: 329352  HIT: 34161  MISS: 295191  HIT %: 10.3722  MISS %: 89.6278  AVERAGE MISS PENALTY: 334.278
LLC1 WRITEBACK ACCESS:  3087  HIT:  1692  MISS:  1395  HIT %: 54.8105  MISS %: 45.1895  AVERAGE MISS PENALTY: 0
LLC1 PREFETCH  REQUESTED:     0  ISSUED:     0  USEFUL:   433  USELESS: 2364274
 USEFUL LOAD PREFETCHES:        433 PREFETCH ISSUED TO LOWER LEVEL:    2375738  ACCURACY: 0.0182259
 TIMELY PREFETCHES:        433 LATE PREFETCHES: 0 DROPPED PREFETCHES: 0
LLC1 AVERAGE MISS LATENCY: 332.525 cycles
LLC2 TOTAL     ACCESS: 341992  HIT: 36948  MISS: 305044  HIT %: 10.8038  MISS %: 89.1962  AVERAGE MISS PENALTY: 363.687
LLC2 LOAD      ACCESS:  6066  HIT:   697  MISS:  5369  HIT %: 11.4903  MISS %: 88.5097  AVERAGE MISS PENALTY: 324.513
LLC2 RFO       ACCESS:  2625  HIT:   126  MISS:  2499  HIT %:   4.8  MISS %:  95.2  AVERAGE MISS PENALTY: 271.914
LLC2 PREFETCH  ACCESS: 330271  HIT: 34443  MISS: 295828  HIT %: 10.4287  MISS %: 89.5713  AVERAGE MISS PENALTY: 366.831
LLC2 WRITEBACK ACCESS:  3030  HIT:  1682  MISS:  1348  HIT %: 55.5116  MISS %: 44.4884  AVERAGE MISS PENALTY: 0
LLC2 PREFETCH  REQUESTED:     0  ISSUED:     0  USEFUL:   526  USELESS: 2370595
 USEFUL LOAD PREFETCHES:        526 PREFETCH ISSUED TO LOWER LEVEL:    2392922  ACCURACY: 0.0219815
 TIMELY PREFETCHES:        526 LATE PREFETCHES: 0 DROPPED PREFETCHES: 0
LLC2 AVERAGE MISS LATENCY: 363.687 cycles
LLC3 TOTAL     ACCESS: 342397  HIT: 36815  MISS: 305582  HIT %: 10.7521  MISS %: 89.2479  AVERAGE MISS PENALTY: 367.754
LLC3 LOAD      ACCESS:  6038  HIT:   672  MISS:  5366  HIT %: 11.1295  MISS %: 88.8705  AVERAGE MISS PENALTY: 329.101
LLC3 RFO       ACCESS:  2462  HIT:     1  MISS:  2461  HIT %: 0.0406174  MISS %: 99.9594  AVERAGE MISS PENALTY: 274.05
LLC3 PREFETCH  ACCESS: 330729  HIT: 34365  MISS: 296364  HIT %: 10.3907  MISS %: 89.6093  AVERAGE MISS PENALTY: 370.958
LLC3 WRITEBACK ACCESS:  3168  HIT:  1777  MISS:  1391  HIT %: 56.0922  MISS %: 43.9078  AVERAGE MISS PENALTY: 0
LLC3 PREFETCH  REQUESTED:     0  ISSUED:     0  USEFUL:   478  USELESS: 2374059
 USEFUL LOAD PREFETCHES:        478 PREFETCH ISSUED TO LOWER LEVEL:    2391969  ACCURACY: 0.0199835
 TIMELY PREFETCHES:        478 LATE PREFETCHES: 0 DROPPED PREFETCHES: 0
LLC3 AVERAGE MISS LATENCY: 367.754 cycles
LLC4 TOTAL     ACCESS: 343010  HIT: 36976  MISS: 306034  HIT %: 10.7799  MISS %: 89.2201  AVERAGE MISS PENALTY: 337.83
LLC4 LOAD      ACCESS:  6120  HIT:   679  MISS:  5441  HIT %: 11.0948  MISS %: 88.9052  AVERAGE MISS PENALTY: 352.667
LLC4 RFO       ACCESS:  2458  HIT:     2  MISS:  2456  HIT %: 0.081367  MISS %: 99.9186  AVERAGE MISS PENALTY: 275.776
LLC4 PREFETCH  ACCESS: 331557  HIT: 34709  MISS: 296848  HIT %: 10.4685  MISS %: 89.5315  AVERAGE MISS PENALTY: 339.538
LLC4 WRITEBACK ACCESS:  2875  HIT:  1586  MISS:  1289  HIT %: 55.1652  MISS %: 44.8348  AVERAGE MISS PENALTY: 0
LLC4 PREFETCH  REQUESTED:     0  ISSUED:     0  USEFUL:   487  USELESS: 2379140
 USEFUL LOAD PREFETCHES:        487 PREFETCH ISSUED TO LOWER LEVEL:    2418272  ACCURACY: 0.0201383
 TIMELY PREFETCHES:        487 LATE PREFETCHES: 0 DROPPED PREFETCHES: 0
LLC4 AVERAGE MISS LATENCY: 337.83 cycles
LLC5 TOTAL     ACCESS: 343227  HIT: 37230  MISS: 305997  HIT %: 10.847  MISS %: 89.153  AVERAGE MISS PENALTY: 332.796
LLC5 LOAD      ACCESS:  6189  HIT:   779  MISS:  5410  HIT %: 12.5868  MISS %: 87.4132  AVERAGE MISS PENALTY: 365.2
LLC5 RFO       ACCESS:  2455  HIT:     0  MISS:  2455  HIT %:     0  MISS %:   100  AVERAGE MISS PENALTY: 278.11
LLC5 PREFETCH  ACCESS: 331604  HIT: 34756  MISS: 296848  HIT %: 10.4812  MISS %: 89.5188  AVERAGE MISS PENALTY: 334.097
LLC5 WRITEBACK ACCESS:  2979  HIT:  1695  MISS:  1284  HIT %: 56.8983  MISS %: 43.1017  AVERAGE MISS PENALTY: 0
LLC5 PREFETCH  REQUESTED:     0  ISSUED:     0  USEFUL:   633  USELESS: 2378339
 USEFUL LOAD PREFETCHES:        633 PREFETCH ISSUED TO LOWER LEVEL:    2410419  ACCURACY: 0.026261
 TIMELY PREFETCHES:        633 LATE PREFETCHES: 0 DROPPED PREFETCHES: 0
LLC5 AVERAGE MISS LATENCY: 332.796 cycles
LLC6 TOTAL     ACCESS: 343026  HIT: 36746  MISS: 306280  HIT %: 10.7123  MISS %: 89.2877  AVERAGE MISS PENALTY: 358.862
LLC6 LOAD      ACCESS:  6055  HIT:   720  MISS:  5335  HIT %: 11.891  MISS %: 88.109  AVERAGE MISS PENALTY: 324.492
LLC6 RFO       ACCESS:  2456  HIT:     1  MISS:  2455  HIT %: 0.0407166  MISS %: 99.9593  AVERAGE MISS PENALTY: 280.816
LLC6 PREFETCH  ACCESS: 331713  HIT: 34528  MISS: 297185  HIT %: 10.409  MISS %: 89.591  AVERAGE MISS PENALTY: 361.7
LLC6 WRITEBACK ACCESS:  2802  HIT:  1497  MISS:  1305  HIT %: 53.4261  MISS %: 46.5739  AVERAGE MISS PENALTY: 0
LLC6 PREFETCH  REQUESTED:     0  ISSUED:     0  USEFUL:   536  USELESS: 2380158
 USEFUL LOAD PREFETCHES:        536 PREFETCH ISSUED TO LOWER LEVEL:    2432076  ACCURACY: 0.0220388
 TIMELY PREFETCHES:        536 LATE PREFETCHES: 0 DROPPED PREFETCHES: 0
LLC6 AVERAGE MISS LATENCY: 358.862 cycles
LLC7 TOTAL     ACCESS: 342916  HIT: 36868  MISS: 306048  HIT %: 10.7513  MISS %: 89.2487  AVERAGE MISS PENALTY: 356.02
LLC7 LOAD      ACCESS:  5924  HIT:   600  MISS:  5324  HIT %: 10.1283  MISS %: 89.8717  AVERAGE MISS PENALTY: 318.633
LLC7 RFO       ACCESS:  2456  HIT:     0  MISS:  2456  HIT %:     0  MISS %:   100  AVERAGE MISS PENALTY: 281.448
LLC7 PREFETCH  ACCESS: 331750  HIT: 34742  MISS: 297008  HIT %: 10.4723  MISS %: 89.5277  AVERAGE MISS PENALTY: 358.818
LLC7 WRITEBACK ACCESS:  2786  HIT:  1526  MISS:  1260  HIT %: 54.7739  MISS %: 45.2261  AVERAGE MISS PENALTY: 0
LLC7 PREFETCH  REQUESTED:     0  ISSUED:     0  USEFUL:   551  USELESS: 2379773
 USEFUL LOAD PREFETCHES:        551 PREFETCH ISSUED TO LOWER LEVEL:    2425298  ACCURACY: 0.0227189
 TIMELY PREFETCHES:        551 LATE PREFETCHES: 0 DROPPED PREFETCHES: 0
LLC7 AVERAGE MISS LATENCY: 356.02 cycles
ROI Average ROB Stall Cycles:	8.32116
ROI Total ROB Stalls Cycles:	137414123
ROI TOTAL ROB counter      :	16513824
ROI Average Load ROB Stall Cycles:	14.204
ROI Total Load ROB Stalls Cycle  :	42191899
ROI Total Load ROB stalls Counter:	2970432
Major fault: 0 Minor fault: 131807








Interconnect Stats 
LINK 0 BW : 0LINK 1 BW : 0LINK 2 BW : 0LINK 3 BW : 0LINK 4 BW : 0LINK 5 BW : 0LINK 6 BW : 0LINK 7 BW : 0
DRAM Statistics
 CHANNEL 0
 RQ ROW_BUFFER_HIT: 8131320  ROW_BUFFER_MISS: 1611390
 DBUS_CONGESTED: 3106405
 WQ ROW_BUFFER_HIT:  7255  ROW_BUFFER_MISS: 79094  FULL:     0

 CHANNEL 1
 RQ ROW_BUFFER_HIT: 8134379  ROW_BUFFER_MISS: 1615316
 DBUS_CONGESTED: 3106405
 WQ ROW_BUFFER_HIT:  7581  ROW_BUFFER_MISS: 80029  FULL:     0

 AVG_CONGESTED_CYCLE: 4
DRAM PAGES: 2097152
Allocated PAGES: 1052893
L2C destructor called
L1D destructor called
L1I destructor called
STLB destructor called
DTLB destructor called
ITLB destructor called
L2C destructor called
L1D destructor called
L1I destructor called
STLB destructor called
DTLB destructor called
ITLB destructor called
L2C destructor called
L1D destructor called
L1I destructor called
STLB destructor called
DTLB destructor called
ITLB destructor called
L2C destructor called
L1D destructor called
L1I destructor called
STLB destructor called
DTLB destructor called
ITLB destructor called
L2C destructor called
L1D destructor called
L1I destructor called
STLB destructor called
DTLB destructor called
ITLB destructor called
L2C destructor called
L1D destructor called
L1I destructor called
STLB destructor called
DTLB destructor called
ITLB destructor called
L2C destructor called
L1D destructor called
L1I destructor called
STLB destructor called
DTLB destructor called
ITLB destructor called
L2C destructor called
L1D destructor called
L1I destructor called
STLB destructor called
DTLB destructor called
ITLB destructor called
