
*** ChampSim Multicore Out-of-Order Simulator ***

Warmup Instructions: 200000000
Simulation Instructions: 200000000
Number of CPUs: 8
threads:1

L1I Configuration:
L1I_SET:64
L1I_WAY:8
L1I_RQ_SIZE:64
L1I_WQ_SIZE:64
L1I_PQ_SIZE:8
L1I_MSHR_SIZE:8

L1D Configuration:
L1D_SET:64
L1D_WAY:12
L1D_RQ_SIZE:64
L1D_WQ_SIZE:64
L1D_PQ_SIZE:8
L1D_MSHR_SIZE:16

L2C Configuration:
L2C_SET:1024
L2C_WAY:8
L2C_RQ_SIZE:32
L2C_WQ_SIZE:32
L2C_PQ_SIZE:16
L2C_MSHR_SIZE:32

LLC Configuration:
LLC_SET:2048
LLC_WAY:16
LLC SLICES:8
LLC_RQ_SIZE:64
LLC_WQ_SIZE:64
LLC_PQ_SIZE:32
LLC_MSHR_SIZE:64

Interconnect OFF
Attacker deprioritize is: OFF
Off-chip DRAM Size: 8192 MB Channels: 2 Width: 64-bit Data Rate: 3200 MT/s
PAGE SIZE in KB: 4.000000 
PAGE SIZE in MB: 0.003906 
PAGE offset in bits: 12 
CEASER-S_LLC:0
MIRAGE : 1
CEASER_LATENCY:3
REMAP : OFF
Partitions : 1
Multi-Step : OFF
BFS : OFF

CPU 0 runs /home/anubhav/spec_2017/600.perlbench_s-570B.champsimtrace.xz
CPU 1 runs /home/anubhav/spec_2017/600.perlbench_s-570B.champsimtrace.xz
CPU 2 runs /home/anubhav/spec_2017/600.perlbench_s-570B.champsimtrace.xz
CPU 3 runs /home/anubhav/spec_2017/600.perlbench_s-570B.champsimtrace.xz
CPU 4 runs /home/anubhav/spec_2017/600.perlbench_s-570B.champsimtrace.xz
CPU 5 runs /home/anubhav/spec_2017/600.perlbench_s-570B.champsimtrace.xz
CPU 6 runs /home/anubhav/spec_2017/600.perlbench_s-570B.champsimtrace.xz
CPU 7 runs /home/anubhav/spec_2017/600.perlbench_s-570B.champsimtrace.xz
CPU 0 Bimodal branch predictor
Initialize Hawkeye state
Initialize Hawkeye state
Initialize Hawkeye state
Initialize Hawkeye state
Initialize Hawkeye state
Initialize Hawkeye state
Initialize Hawkeye state
Initialize Hawkeye state
CPU 1 Bimodal branch predictor
Initialize Hawkeye state
Initialize Hawkeye state
Initialize Hawkeye state
Initialize Hawkeye state
Initialize Hawkeye state
Initialize Hawkeye state
Initialize Hawkeye state
Initialize Hawkeye state
CPU 2 Bimodal branch predictor
Initialize Hawkeye state
Initialize Hawkeye state
Initialize Hawkeye state
Initialize Hawkeye state
Initialize Hawkeye state
Initialize Hawkeye state
Initialize Hawkeye state
Initialize Hawkeye state
CPU 3 Bimodal branch predictor
Initialize Hawkeye state
Initialize Hawkeye state
Initialize Hawkeye state
Initialize Hawkeye state
Initialize Hawkeye state
Initialize Hawkeye state
Initialize Hawkeye state
Initialize Hawkeye state
CPU 4 Bimodal branch predictor
Initialize Hawkeye state
Initialize Hawkeye state
Initialize Hawkeye state
Initialize Hawkeye state
Initialize Hawkeye state
Initialize Hawkeye state
Initialize Hawkeye state
Initialize Hawkeye state
CPU 5 Bimodal branch predictor
Initialize Hawkeye state
Initialize Hawkeye state
Initialize Hawkeye state
Initialize Hawkeye state
Initialize Hawkeye state
Initialize Hawkeye state
Initialize Hawkeye state
Initialize Hawkeye state
CPU 6 Bimodal branch predictor
Initialize Hawkeye state
Initialize Hawkeye state
Initialize Hawkeye state
Initialize Hawkeye state
Initialize Hawkeye state
Initialize Hawkeye state
Initialize Hawkeye state
Initialize Hawkeye state
CPU 7 Bimodal branch predictor
Initialize Hawkeye state
Initialize Hawkeye state
Initialize Hawkeye state
Initialize Hawkeye state
Initialize Hawkeye state
Initialize Hawkeye state
Initialize Hawkeye state
Initialize Hawkeye state
Heartbeat CPU 0 instructions: 10000002 cycles: 4995850 heartbeat IPC: 2.00166 cumulative IPC: 2.00166 (Simulation time: 0 hr 16 min 25 sec) 
 Total Blocks : 262144 Invalid Blocks : 233110
Heartbeat CPU 1 instructions: 10000002 cycles: 4995863 heartbeat IPC: 2.00166 cumulative IPC: 2.00166 (Simulation time: 0 hr 16 min 26 sec) 
 Total Blocks : 262144 Invalid Blocks : 233110
Heartbeat CPU 2 instructions: 10000002 cycles: 4995865 heartbeat IPC: 2.00166 cumulative IPC: 2.00166 (Simulation time: 0 hr 16 min 26 sec) 
 Total Blocks : 262144 Invalid Blocks : 233110
Heartbeat CPU 3 instructions: 10000002 cycles: 4995871 heartbeat IPC: 2.00165 cumulative IPC: 2.00165 (Simulation time: 0 hr 16 min 26 sec) 
 Total Blocks : 262144 Invalid Blocks : 233110
Heartbeat CPU 5 instructions: 10000002 cycles: 4995878 heartbeat IPC: 2.00165 cumulative IPC: 2.00165 (Simulation time: 0 hr 16 min 26 sec) 
 Total Blocks : 262144 Invalid Blocks : 233110
Heartbeat CPU 6 instructions: 10000002 cycles: 4995883 heartbeat IPC: 2.00165 cumulative IPC: 2.00165 (Simulation time: 0 hr 16 min 26 sec) 
 Total Blocks : 262144 Invalid Blocks : 233110
Heartbeat CPU 4 instructions: 10000002 cycles: 4995888 heartbeat IPC: 2.00165 cumulative IPC: 2.00165 (Simulation time: 0 hr 16 min 26 sec) 
 Total Blocks : 262144 Invalid Blocks : 233110
Heartbeat CPU 7 instructions: 10000002 cycles: 4995894 heartbeat IPC: 2.00164 cumulative IPC: 2.00164 (Simulation time: 0 hr 16 min 26 sec) 
 Total Blocks : 262144 Invalid Blocks : 233110
Heartbeat CPU 0 instructions: 20000002 cycles: 9928154 heartbeat IPC: 2.02745 cumulative IPC: 2.01447 (Simulation time: 0 hr 32 min 14 sec) 
 Total Blocks : 262144 Invalid Blocks : 222332
Heartbeat CPU 2 instructions: 20000002 cycles: 9928167 heartbeat IPC: 2.02745 cumulative IPC: 2.01447 (Simulation time: 0 hr 32 min 14 sec) 
 Total Blocks : 262144 Invalid Blocks : 222332
Heartbeat CPU 1 instructions: 20000002 cycles: 9928170 heartbeat IPC: 2.02745 cumulative IPC: 2.01447 (Simulation time: 0 hr 32 min 14 sec) 
 Total Blocks : 262144 Invalid Blocks : 222332
Heartbeat CPU 3 instructions: 20000002 cycles: 9928172 heartbeat IPC: 2.02745 cumulative IPC: 2.01447 (Simulation time: 0 hr 32 min 14 sec) 
 Total Blocks : 262144 Invalid Blocks : 222332
Heartbeat CPU 5 instructions: 20000002 cycles: 9928176 heartbeat IPC: 2.02745 cumulative IPC: 2.01447 (Simulation time: 0 hr 32 min 14 sec) 
 Total Blocks : 262144 Invalid Blocks : 222332
Heartbeat CPU 6 instructions: 20000002 cycles: 9928184 heartbeat IPC: 2.02745 cumulative IPC: 2.01447 (Simulation time: 0 hr 32 min 14 sec) 
 Total Blocks : 262144 Invalid Blocks : 222332
Heartbeat CPU 4 instructions: 20000002 cycles: 9928194 heartbeat IPC: 2.02745 cumulative IPC: 2.01447 (Simulation time: 0 hr 32 min 14 sec) 
 Total Blocks : 262144 Invalid Blocks : 222332
Heartbeat CPU 7 instructions: 20000002 cycles: 9928204 heartbeat IPC: 2.02745 cumulative IPC: 2.01446 (Simulation time: 0 hr 32 min 14 sec) 
 Total Blocks : 262144 Invalid Blocks : 222332
Heartbeat CPU 0 instructions: 30000000 cycles: 15052480 heartbeat IPC: 1.95148 cumulative IPC: 1.99303 (Simulation time: 0 hr 49 min 25 sec) 
 Total Blocks : 262144 Invalid Blocks : 209561
Heartbeat CPU 1 instructions: 30000000 cycles: 15052499 heartbeat IPC: 1.95147 cumulative IPC: 1.99302 (Simulation time: 0 hr 49 min 25 sec) 
 Total Blocks : 262144 Invalid Blocks : 209561
Heartbeat CPU 2 instructions: 30000000 cycles: 15052503 heartbeat IPC: 1.95147 cumulative IPC: 1.99302 (Simulation time: 0 hr 49 min 25 sec) 
 Total Blocks : 262144 Invalid Blocks : 209561
Heartbeat CPU 3 instructions: 30000000 cycles: 15052506 heartbeat IPC: 1.95147 cumulative IPC: 1.99302 (Simulation time: 0 hr 49 min 25 sec) 
 Total Blocks : 262144 Invalid Blocks : 209561
Heartbeat CPU 5 instructions: 30000000 cycles: 15052509 heartbeat IPC: 1.95147 cumulative IPC: 1.99302 (Simulation time: 0 hr 49 min 25 sec) 
 Total Blocks : 262144 Invalid Blocks : 209561
Heartbeat CPU 6 instructions: 30000000 cycles: 15052526 heartbeat IPC: 1.95147 cumulative IPC: 1.99302 (Simulation time: 0 hr 49 min 25 sec) 
 Total Blocks : 262144 Invalid Blocks : 209561
Heartbeat CPU 4 instructions: 30000000 cycles: 15052528 heartbeat IPC: 1.95147 cumulative IPC: 1.99302 (Simulation time: 0 hr 49 min 25 sec) 
 Total Blocks : 262144 Invalid Blocks : 209561
Heartbeat CPU 7 instructions: 30000000 cycles: 15052532 heartbeat IPC: 1.95148 cumulative IPC: 1.99302 (Simulation time: 0 hr 49 min 25 sec) 
 Total Blocks : 262144 Invalid Blocks : 209561
Heartbeat CPU 0 instructions: 40000001 cycles: 19996275 heartbeat IPC: 2.02274 cumulative IPC: 2.00037 (Simulation time: 1 hr 6 min 47 sec) 
 Total Blocks : 262144 Invalid Blocks : 197430
Heartbeat CPU 1 instructions: 40000001 cycles: 19996289 heartbeat IPC: 2.02274 cumulative IPC: 2.00037 (Simulation time: 1 hr 6 min 47 sec) 
 Total Blocks : 262144 Invalid Blocks : 197430
Heartbeat CPU 2 instructions: 40000001 cycles: 19996291 heartbeat IPC: 2.02274 cumulative IPC: 2.00037 (Simulation time: 1 hr 6 min 47 sec) 
 Total Blocks : 262144 Invalid Blocks : 197430
Heartbeat CPU 3 instructions: 40000001 cycles: 19996299 heartbeat IPC: 2.02274 cumulative IPC: 2.00037 (Simulation time: 1 hr 6 min 47 sec) 
 Total Blocks : 262144 Invalid Blocks : 197430
Heartbeat CPU 5 instructions: 40000001 cycles: 19996304 heartbeat IPC: 2.02274 cumulative IPC: 2.00037 (Simulation time: 1 hr 6 min 47 sec) 
 Total Blocks : 262144 Invalid Blocks : 197430
Heartbeat CPU 4 instructions: 40000001 cycles: 19996323 heartbeat IPC: 2.02274 cumulative IPC: 2.00037 (Simulation time: 1 hr 6 min 47 sec) 
 Total Blocks : 262144 Invalid Blocks : 197430
Heartbeat CPU 6 instructions: 40000001 cycles: 19996327 heartbeat IPC: 2.02274 cumulative IPC: 2.00037 (Simulation time: 1 hr 6 min 47 sec) 
 Total Blocks : 262144 Invalid Blocks : 197430
Heartbeat CPU 7 instructions: 40000001 cycles: 19996330 heartbeat IPC: 2.02274 cumulative IPC: 2.00037 (Simulation time: 1 hr 6 min 47 sec) 
 Total Blocks : 262144 Invalid Blocks : 197430
Heartbeat CPU 0 instructions: 50000002 cycles: 24955461 heartbeat IPC: 2.01646 cumulative IPC: 2.00357 (Simulation time: 1 hr 23 min 21 sec) 
 Total Blocks : 262144 Invalid Blocks : 187276
Heartbeat CPU 1 instructions: 50000002 cycles: 24955477 heartbeat IPC: 2.01646 cumulative IPC: 2.00357 (Simulation time: 1 hr 23 min 21 sec) 
 Total Blocks : 262144 Invalid Blocks : 187276
Heartbeat CPU 2 instructions: 50000002 cycles: 24955481 heartbeat IPC: 2.01646 cumulative IPC: 2.00357 (Simulation time: 1 hr 23 min 21 sec) 
 Total Blocks : 262144 Invalid Blocks : 187276
Heartbeat CPU 3 instructions: 50000002 cycles: 24955492 heartbeat IPC: 2.01646 cumulative IPC: 2.00357 (Simulation time: 1 hr 23 min 21 sec) 
 Total Blocks : 262144 Invalid Blocks : 187276
Heartbeat CPU 5 instructions: 50000002 cycles: 24955494 heartbeat IPC: 2.01646 cumulative IPC: 2.00357 (Simulation time: 1 hr 23 min 21 sec) 
 Total Blocks : 262144 Invalid Blocks : 187276
Heartbeat CPU 4 instructions: 50000002 cycles: 24955511 heartbeat IPC: 2.01646 cumulative IPC: 2.00357 (Simulation time: 1 hr 23 min 21 sec) 
 Total Blocks : 262144 Invalid Blocks : 187276
Heartbeat CPU 6 instructions: 50000002 cycles: 24955515 heartbeat IPC: 2.01646 cumulative IPC: 2.00357 (Simulation time: 1 hr 23 min 21 sec) 
 Total Blocks : 262144 Invalid Blocks : 187276
Heartbeat CPU 7 instructions: 50000002 cycles: 24955528 heartbeat IPC: 2.01646 cumulative IPC: 2.00356 (Simulation time: 1 hr 23 min 21 sec) 
 Total Blocks : 262144 Invalid Blocks : 187276
Heartbeat CPU 0 instructions: 60000000 cycles: 29881803 heartbeat IPC: 2.0299 cumulative IPC: 2.00791 (Simulation time: 1 hr 40 min 36 sec) 
 Total Blocks : 262144 Invalid Blocks : 179700
Heartbeat CPU 1 instructions: 60000000 cycles: 29881817 heartbeat IPC: 2.0299 cumulative IPC: 2.00791 (Simulation time: 1 hr 40 min 36 sec) 
 Total Blocks : 262144 Invalid Blocks : 179700
Heartbeat CPU 2 instructions: 60000000 cycles: 29881818 heartbeat IPC: 2.02991 cumulative IPC: 2.00791 (Simulation time: 1 hr 40 min 36 sec) 
 Total Blocks : 262144 Invalid Blocks : 179700
Heartbeat CPU 3 instructions: 60000000 cycles: 29881827 heartbeat IPC: 2.02991 cumulative IPC: 2.00791 (Simulation time: 1 hr 40 min 36 sec) 
 Total Blocks : 262144 Invalid Blocks : 179700
Heartbeat CPU 5 instructions: 60000000 cycles: 29881831 heartbeat IPC: 2.02991 cumulative IPC: 2.00791 (Simulation time: 1 hr 40 min 36 sec) 
 Total Blocks : 262144 Invalid Blocks : 179700
Heartbeat CPU 4 instructions: 60000000 cycles: 29881842 heartbeat IPC: 2.02991 cumulative IPC: 2.00791 (Simulation time: 1 hr 40 min 36 sec) 
 Total Blocks : 262144 Invalid Blocks : 179700
Heartbeat CPU 6 instructions: 60000000 cycles: 29881849 heartbeat IPC: 2.02991 cumulative IPC: 2.00791 (Simulation time: 1 hr 40 min 36 sec) 
 Total Blocks : 262144 Invalid Blocks : 179700
Heartbeat CPU 7 instructions: 60000000 cycles: 29881869 heartbeat IPC: 2.0299 cumulative IPC: 2.00791 (Simulation time: 1 hr 40 min 36 sec) 
 Total Blocks : 262144 Invalid Blocks : 179700
Heartbeat CPU 4 instructions: 70000001 cycles: 36349013 heartbeat IPC: 1.54627 cumulative IPC: 1.92577 (Simulation time: 1 hr 59 min 47 sec) 
 Total Blocks : 262144 Invalid Blocks : 60821
Heartbeat CPU 6 instructions: 70000001 cycles: 36349233 heartbeat IPC: 1.54622 cumulative IPC: 1.92576 (Simulation time: 1 hr 59 min 47 sec) 
 Total Blocks : 262144 Invalid Blocks : 60817
Heartbeat CPU 2 instructions: 70000001 cycles: 36349460 heartbeat IPC: 1.54616 cumulative IPC: 1.92575 (Simulation time: 1 hr 59 min 47 sec) 
 Total Blocks : 262144 Invalid Blocks : 60817
Heartbeat CPU 1 instructions: 70000001 cycles: 36349533 heartbeat IPC: 1.54614 cumulative IPC: 1.92575 (Simulation time: 1 hr 59 min 47 sec) 
 Total Blocks : 262144 Invalid Blocks : 60815
Heartbeat CPU 5 instructions: 70000001 cycles: 36350175 heartbeat IPC: 1.54599 cumulative IPC: 1.92571 (Simulation time: 1 hr 59 min 47 sec) 
 Total Blocks : 262144 Invalid Blocks : 60812
Heartbeat CPU 0 instructions: 70000001 cycles: 36350502 heartbeat IPC: 1.54591 cumulative IPC: 1.9257 (Simulation time: 1 hr 59 min 47 sec) 
 Total Blocks : 262144 Invalid Blocks : 60809
Heartbeat CPU 3 instructions: 70000001 cycles: 36350530 heartbeat IPC: 1.54591 cumulative IPC: 1.92569 (Simulation time: 1 hr 59 min 47 sec) 
 Total Blocks : 262144 Invalid Blocks : 60808
Heartbeat CPU 7 instructions: 70000001 cycles: 36351145 heartbeat IPC: 1.54577 cumulative IPC: 1.92566 (Simulation time: 1 hr 59 min 47 sec) 
 Total Blocks : 262144 Invalid Blocks : 60803
Heartbeat CPU 4 instructions: 80000000 cycles: 43071654 heartbeat IPC: 1.48751 cumulative IPC: 1.85737 (Simulation time: 2 hr 20 min 13 sec) 
 Total Blocks : 262144 Invalid Blocks : 20916
Heartbeat CPU 6 instructions: 80000000 cycles: 43072163 heartbeat IPC: 1.48745 cumulative IPC: 1.85735 (Simulation time: 2 hr 20 min 13 sec) 
 Total Blocks : 262144 Invalid Blocks : 20909
Heartbeat CPU 1 instructions: 80000002 cycles: 43072825 heartbeat IPC: 1.48737 cumulative IPC: 1.85732 (Simulation time: 2 hr 20 min 14 sec) 
 Total Blocks : 262144 Invalid Blocks : 20905
Heartbeat CPU 2 instructions: 80000001 cycles: 43072855 heartbeat IPC: 1.48734 cumulative IPC: 1.85732 (Simulation time: 2 hr 20 min 14 sec) 
 Total Blocks : 262144 Invalid Blocks : 20905
Heartbeat CPU 3 instructions: 80000000 cycles: 43074137 heartbeat IPC: 1.4873 cumulative IPC: 1.85726 (Simulation time: 2 hr 20 min 14 sec) 
 Total Blocks : 262144 Invalid Blocks : 20899
Heartbeat CPU 0 instructions: 80000000 cycles: 43074423 heartbeat IPC: 1.48723 cumulative IPC: 1.85725 (Simulation time: 2 hr 20 min 14 sec) 
 Total Blocks : 262144 Invalid Blocks : 20898
Heartbeat CPU 5 instructions: 80000000 cycles: 43074463 heartbeat IPC: 1.48715 cumulative IPC: 1.85725 (Simulation time: 2 hr 20 min 14 sec) 
 Total Blocks : 262144 Invalid Blocks : 20898
Heartbeat CPU 7 instructions: 80000001 cycles: 43076598 heartbeat IPC: 1.48689 cumulative IPC: 1.85716 (Simulation time: 2 hr 20 min 15 sec) 
 Total Blocks : 262144 Invalid Blocks : 20890
Heartbeat CPU 4 instructions: 90000000 cycles: 50819573 heartbeat IPC: 1.29067 cumulative IPC: 1.77097 (Simulation time: 2 hr 42 min 5 sec) 
 Total Blocks : 262144 Invalid Blocks : 3772
Heartbeat CPU 6 instructions: 90000000 cycles: 50820649 heartbeat IPC: 1.29057 cumulative IPC: 1.77093 (Simulation time: 2 hr 42 min 6 sec) 
 Total Blocks : 262144 Invalid Blocks : 3772
Heartbeat CPU 2 instructions: 90000000 cycles: 50821287 heartbeat IPC: 1.29058 cumulative IPC: 1.77091 (Simulation time: 2 hr 42 min 6 sec) 
 Total Blocks : 262144 Invalid Blocks : 3772
Heartbeat CPU 1 instructions: 90000000 cycles: 50821624 heartbeat IPC: 1.29052 cumulative IPC: 1.7709 (Simulation time: 2 hr 42 min 6 sec) 
 Total Blocks : 262144 Invalid Blocks : 3772
Heartbeat CPU 3 instructions: 90000000 cycles: 50822867 heartbeat IPC: 1.29053 cumulative IPC: 1.77086 (Simulation time: 2 hr 42 min 6 sec) 
 Total Blocks : 262144 Invalid Blocks : 3772
Heartbeat CPU 5 instructions: 90000000 cycles: 50822985 heartbeat IPC: 1.29057 cumulative IPC: 1.77085 (Simulation time: 2 hr 42 min 6 sec) 
 Total Blocks : 262144 Invalid Blocks : 3772
Heartbeat CPU 0 instructions: 90000000 cycles: 50824034 heartbeat IPC: 1.29039 cumulative IPC: 1.77082 (Simulation time: 2 hr 42 min 6 sec) 
 Total Blocks : 262144 Invalid Blocks : 3772
Heartbeat CPU 7 instructions: 90000000 cycles: 50827493 heartbeat IPC: 1.29017 cumulative IPC: 1.7707 (Simulation time: 2 hr 42 min 7 sec) 
 Total Blocks : 262144 Invalid Blocks : 3772
Heartbeat CPU 4 instructions: 100000002 cycles: 55821865 heartbeat IPC: 1.99908 cumulative IPC: 1.79141 (Simulation time: 3 hr 1 min 18 sec) 
 Total Blocks : 262144 Invalid Blocks : 2808
Heartbeat CPU 6 instructions: 100000002 cycles: 55822899 heartbeat IPC: 1.9991 cumulative IPC: 1.79138 (Simulation time: 3 hr 1 min 18 sec) 
 Total Blocks : 262144 Invalid Blocks : 2808
Heartbeat CPU 2 instructions: 100000002 cycles: 55823557 heartbeat IPC: 1.99909 cumulative IPC: 1.79136 (Simulation time: 3 hr 1 min 18 sec) 
 Total Blocks : 262144 Invalid Blocks : 2808
Heartbeat CPU 1 instructions: 100000002 cycles: 55823902 heartbeat IPC: 1.99909 cumulative IPC: 1.79135 (Simulation time: 3 hr 1 min 18 sec) 
 Total Blocks : 262144 Invalid Blocks : 2808
Heartbeat CPU 3 instructions: 100000002 cycles: 55825124 heartbeat IPC: 1.9991 cumulative IPC: 1.79131 (Simulation time: 3 hr 1 min 18 sec) 
 Total Blocks : 262144 Invalid Blocks : 2808
Heartbeat CPU 5 instructions: 100000002 cycles: 55825221 heartbeat IPC: 1.99911 cumulative IPC: 1.79131 (Simulation time: 3 hr 1 min 18 sec) 
 Total Blocks : 262144 Invalid Blocks : 2808
Heartbeat CPU 0 instructions: 100000002 cycles: 55826338 heartbeat IPC: 1.99908 cumulative IPC: 1.79127 (Simulation time: 3 hr 1 min 19 sec) 
 Total Blocks : 262144 Invalid Blocks : 2808
Heartbeat CPU 7 instructions: 100000002 cycles: 55829771 heartbeat IPC: 1.99909 cumulative IPC: 1.79116 (Simulation time: 3 hr 1 min 19 sec) 
 Total Blocks : 262144 Invalid Blocks : 2808
Heartbeat CPU 4 instructions: 110000000 cycles: 60908103 heartbeat IPC: 1.96609 cumulative IPC: 1.806 (Simulation time: 3 hr 19 min 58 sec) 
 Total Blocks : 262144 Invalid Blocks : 2139
Heartbeat CPU 6 instructions: 110000000 cycles: 60909155 heartbeat IPC: 1.96608 cumulative IPC: 1.80597 (Simulation time: 3 hr 19 min 59 sec) 
 Total Blocks : 262144 Invalid Blocks : 2139
Heartbeat CPU 2 instructions: 110000000 cycles: 60909819 heartbeat IPC: 1.96608 cumulative IPC: 1.80595 (Simulation time: 3 hr 19 min 59 sec) 
 Total Blocks : 262144 Invalid Blocks : 2139
Heartbeat CPU 1 instructions: 110000000 cycles: 60910151 heartbeat IPC: 1.96609 cumulative IPC: 1.80594 (Simulation time: 3 hr 19 min 59 sec) 
 Total Blocks : 262144 Invalid Blocks : 2139
Heartbeat CPU 3 instructions: 110000000 cycles: 60911373 heartbeat IPC: 1.96609 cumulative IPC: 1.8059 (Simulation time: 3 hr 19 min 59 sec) 
 Total Blocks : 262144 Invalid Blocks : 2139
Heartbeat CPU 5 instructions: 110000000 cycles: 60911553 heartbeat IPC: 1.96605 cumulative IPC: 1.8059 (Simulation time: 3 hr 19 min 59 sec) 
 Total Blocks : 262144 Invalid Blocks : 2139
Heartbeat CPU 0 instructions: 110000000 cycles: 60912606 heartbeat IPC: 1.96608 cumulative IPC: 1.80587 (Simulation time: 3 hr 19 min 59 sec) 
 Total Blocks : 262144 Invalid Blocks : 2139
Heartbeat CPU 7 instructions: 110000000 cycles: 60916016 heartbeat IPC: 1.96609 cumulative IPC: 1.80576 (Simulation time: 3 hr 20 min 0 sec) 
 Total Blocks : 262144 Invalid Blocks : 2139
Heartbeat CPU 4 instructions: 120000001 cycles: 66027507 heartbeat IPC: 1.95335 cumulative IPC: 1.81742 (Simulation time: 3 hr 39 min 26 sec) 
 Total Blocks : 262144 Invalid Blocks : 1518
Heartbeat CPU 6 instructions: 120000001 cycles: 66028586 heartbeat IPC: 1.95334 cumulative IPC: 1.81739 (Simulation time: 3 hr 39 min 27 sec) 
 Total Blocks : 262144 Invalid Blocks : 1516
Heartbeat CPU 2 instructions: 120000001 cycles: 66029256 heartbeat IPC: 1.95334 cumulative IPC: 1.81738 (Simulation time: 3 hr 39 min 27 sec) 
 Total Blocks : 262144 Invalid Blocks : 1516
Heartbeat CPU 1 instructions: 120000001 cycles: 66029571 heartbeat IPC: 1.95335 cumulative IPC: 1.81737 (Simulation time: 3 hr 39 min 27 sec) 
 Total Blocks : 262144 Invalid Blocks : 1516
Heartbeat CPU 3 instructions: 120000001 cycles: 66030820 heartbeat IPC: 1.95334 cumulative IPC: 1.81733 (Simulation time: 3 hr 39 min 27 sec) 
 Total Blocks : 262144 Invalid Blocks : 1515
Heartbeat CPU 5 instructions: 120000001 cycles: 66030985 heartbeat IPC: 1.95334 cumulative IPC: 1.81733 (Simulation time: 3 hr 39 min 27 sec) 
 Total Blocks : 262144 Invalid Blocks : 1515
Heartbeat CPU 0 instructions: 120000001 cycles: 66032033 heartbeat IPC: 1.95334 cumulative IPC: 1.8173 (Simulation time: 3 hr 39 min 28 sec) 
 Total Blocks : 262144 Invalid Blocks : 1515
Heartbeat CPU 7 instructions: 120000001 cycles: 66035434 heartbeat IPC: 1.95335 cumulative IPC: 1.81721 (Simulation time: 3 hr 39 min 29 sec) 
 Total Blocks : 262144 Invalid Blocks : 1514
Heartbeat CPU 4 instructions: 130000000 cycles: 71104731 heartbeat IPC: 1.96958 cumulative IPC: 1.82829 (Simulation time: 3 hr 56 min 42 sec) 
 Total Blocks : 262144 Invalid Blocks : 1065
Heartbeat CPU 6 instructions: 130000000 cycles: 71105834 heartbeat IPC: 1.96957 cumulative IPC: 1.82826 (Simulation time: 3 hr 56 min 42 sec) 
 Total Blocks : 262144 Invalid Blocks : 1061
Heartbeat CPU 2 instructions: 130000000 cycles: 71106476 heartbeat IPC: 1.96958 cumulative IPC: 1.82824 (Simulation time: 3 hr 56 min 42 sec) 
 Total Blocks : 262144 Invalid Blocks : 1060
Heartbeat CPU 1 instructions: 130000000 cycles: 71106832 heartbeat IPC: 1.96957 cumulative IPC: 1.82824 (Simulation time: 3 hr 56 min 42 sec) 
 Total Blocks : 262144 Invalid Blocks : 1059
Heartbeat CPU 3 instructions: 130000000 cycles: 71108048 heartbeat IPC: 1.96958 cumulative IPC: 1.8282 (Simulation time: 3 hr 56 min 43 sec) 
 Total Blocks : 262144 Invalid Blocks : 1057
Heartbeat CPU 5 instructions: 130000000 cycles: 71108235 heartbeat IPC: 1.96957 cumulative IPC: 1.8282 (Simulation time: 3 hr 56 min 43 sec) 
 Total Blocks : 262144 Invalid Blocks : 1056
Heartbeat CPU 0 instructions: 130000000 cycles: 71109307 heartbeat IPC: 1.96956 cumulative IPC: 1.82817 (Simulation time: 3 hr 56 min 43 sec) 
 Total Blocks : 262144 Invalid Blocks : 1053
Heartbeat CPU 7 instructions: 130000000 cycles: 71112672 heartbeat IPC: 1.96957 cumulative IPC: 1.82808 (Simulation time: 3 hr 56 min 43 sec) 
 Total Blocks : 262144 Invalid Blocks : 1047
Heartbeat CPU 4 instructions: 140000003 cycles: 78757541 heartbeat IPC: 1.30671 cumulative IPC: 1.77761 (Simulation time: 4 hr 11 min 54 sec) 
 Total Blocks : 262144 Invalid Blocks : 143
Heartbeat CPU 6 instructions: 140000003 cycles: 78758829 heartbeat IPC: 1.30668 cumulative IPC: 1.77758 (Simulation time: 4 hr 11 min 54 sec) 
 Total Blocks : 262144 Invalid Blocks : 143
Heartbeat CPU 2 instructions: 140000003 cycles: 78760219 heartbeat IPC: 1.30655 cumulative IPC: 1.77755 (Simulation time: 4 hr 11 min 55 sec) 
 Total Blocks : 262144 Invalid Blocks : 143
Heartbeat CPU 1 instructions: 140000003 cycles: 78760694 heartbeat IPC: 1.30653 cumulative IPC: 1.77754 (Simulation time: 4 hr 11 min 55 sec) 
 Total Blocks : 262144 Invalid Blocks : 143
Heartbeat CPU 3 instructions: 140000003 cycles: 78763124 heartbeat IPC: 1.30632 cumulative IPC: 1.77748 (Simulation time: 4 hr 11 min 55 sec) 
 Total Blocks : 262144 Invalid Blocks : 143
Heartbeat CPU 5 instructions: 140000003 cycles: 78763555 heartbeat IPC: 1.30628 cumulative IPC: 1.77747 (Simulation time: 4 hr 11 min 55 sec) 
 Total Blocks : 262144 Invalid Blocks : 143
Heartbeat CPU 0 instructions: 140000003 cycles: 78764443 heartbeat IPC: 1.30631 cumulative IPC: 1.77745 (Simulation time: 4 hr 11 min 56 sec) 
 Total Blocks : 262144 Invalid Blocks : 143
Heartbeat CPU 7 instructions: 140000003 cycles: 78769567 heartbeat IPC: 1.30601 cumulative IPC: 1.77734 (Simulation time: 4 hr 11 min 57 sec) 
 Total Blocks : 262144 Invalid Blocks : 143
Heartbeat CPU 4 instructions: 150000001 cycles: 86830165 heartbeat IPC: 1.23875 cumulative IPC: 1.72751 (Simulation time: 4 hr 27 min 37 sec) 
 Total Blocks : 262144 Invalid Blocks : 42
Heartbeat CPU 6 instructions: 150000001 cycles: 86832117 heartbeat IPC: 1.23865 cumulative IPC: 1.72747 (Simulation time: 4 hr 27 min 37 sec) 
 Total Blocks : 262144 Invalid Blocks : 42
Heartbeat CPU 2 instructions: 150000001 cycles: 86833832 heartbeat IPC: 1.2386 cumulative IPC: 1.72744 (Simulation time: 4 hr 27 min 37 sec) 
 Total Blocks : 262144 Invalid Blocks : 42
Heartbeat CPU 1 instructions: 150000001 cycles: 86835350 heartbeat IPC: 1.23844 cumulative IPC: 1.72741 (Simulation time: 4 hr 27 min 37 sec) 
 Total Blocks : 262144 Invalid Blocks : 42
Heartbeat CPU 3 instructions: 150000001 cycles: 86836825 heartbeat IPC: 1.23859 cumulative IPC: 1.72738 (Simulation time: 4 hr 27 min 37 sec) 
 Total Blocks : 262144 Invalid Blocks : 42
Heartbeat CPU 5 instructions: 150000001 cycles: 86837296 heartbeat IPC: 1.23858 cumulative IPC: 1.72737 (Simulation time: 4 hr 27 min 37 sec) 
 Total Blocks : 262144 Invalid Blocks : 42
Heartbeat CPU 0 instructions: 150000001 cycles: 86838499 heartbeat IPC: 1.23853 cumulative IPC: 1.72734 (Simulation time: 4 hr 27 min 38 sec) 
 Total Blocks : 262144 Invalid Blocks : 42
Heartbeat CPU 7 instructions: 150000001 cycles: 86845306 heartbeat IPC: 1.23828 cumulative IPC: 1.72721 (Simulation time: 4 hr 27 min 38 sec) 
 Total Blocks : 262144 Invalid Blocks : 42
Heartbeat CPU 4 instructions: 160000000 cycles: 93176115 heartbeat IPC: 1.57581 cumulative IPC: 1.71718 (Simulation time: 4 hr 44 min 24 sec) 
 Total Blocks : 262144 Invalid Blocks : 16
Heartbeat CPU 6 instructions: 160000000 cycles: 93178162 heartbeat IPC: 1.57578 cumulative IPC: 1.71714 (Simulation time: 4 hr 44 min 25 sec) 
 Total Blocks : 262144 Invalid Blocks : 16
Heartbeat CPU 2 instructions: 160000000 cycles: 93179933 heartbeat IPC: 1.57577 cumulative IPC: 1.71711 (Simulation time: 4 hr 44 min 25 sec) 
 Total Blocks : 262144 Invalid Blocks : 16
Heartbeat CPU 1 instructions: 160000000 cycles: 93181233 heartbeat IPC: 1.57582 cumulative IPC: 1.71708 (Simulation time: 4 hr 44 min 25 sec) 
 Total Blocks : 262144 Invalid Blocks : 16
Heartbeat CPU 3 instructions: 160000000 cycles: 93183382 heartbeat IPC: 1.57566 cumulative IPC: 1.71704 (Simulation time: 4 hr 44 min 26 sec) 
 Total Blocks : 262144 Invalid Blocks : 16
Heartbeat CPU 5 instructions: 160000000 cycles: 93183647 heartbeat IPC: 1.57571 cumulative IPC: 1.71704 (Simulation time: 4 hr 44 min 26 sec) 
 Total Blocks : 262144 Invalid Blocks : 16
Heartbeat CPU 0 instructions: 160000000 cycles: 93185518 heartbeat IPC: 1.57554 cumulative IPC: 1.71701 (Simulation time: 4 hr 44 min 26 sec) 
 Total Blocks : 262144 Invalid Blocks : 16
Heartbeat CPU 7 instructions: 160000000 cycles: 93192362 heartbeat IPC: 1.57553 cumulative IPC: 1.71688 (Simulation time: 4 hr 44 min 27 sec) 
 Total Blocks : 262144 Invalid Blocks : 16
Heartbeat CPU 4 instructions: 170000001 cycles: 98466866 heartbeat IPC: 1.89009 cumulative IPC: 1.72647 (Simulation time: 5 hr 1 min 27 sec) 
 Total Blocks : 262144 Invalid Blocks : 7
Heartbeat CPU 6 instructions: 170000001 cycles: 98468927 heartbeat IPC: 1.89009 cumulative IPC: 1.72643 (Simulation time: 5 hr 1 min 28 sec) 
 Total Blocks : 262144 Invalid Blocks : 7
Heartbeat CPU 2 instructions: 170000001 cycles: 98470633 heartbeat IPC: 1.89011 cumulative IPC: 1.7264 (Simulation time: 5 hr 1 min 28 sec) 
 Total Blocks : 262144 Invalid Blocks : 7
Heartbeat CPU 1 instructions: 170000001 cycles: 98471939 heartbeat IPC: 1.89011 cumulative IPC: 1.72638 (Simulation time: 5 hr 1 min 28 sec) 
 Total Blocks : 262144 Invalid Blocks : 7
Heartbeat CPU 3 instructions: 170000001 cycles: 98474057 heartbeat IPC: 1.89012 cumulative IPC: 1.72634 (Simulation time: 5 hr 1 min 29 sec) 
 Total Blocks : 262144 Invalid Blocks : 7
Heartbeat CPU 5 instructions: 170000001 cycles: 98474332 heartbeat IPC: 1.89011 cumulative IPC: 1.72634 (Simulation time: 5 hr 1 min 29 sec) 
 Total Blocks : 262144 Invalid Blocks : 7
Heartbeat CPU 0 instructions: 170000001 cycles: 98476224 heartbeat IPC: 1.89011 cumulative IPC: 1.72631 (Simulation time: 5 hr 1 min 29 sec) 
 Total Blocks : 262144 Invalid Blocks : 7
Heartbeat CPU 7 instructions: 170000001 cycles: 98483061 heartbeat IPC: 1.89011 cumulative IPC: 1.72619 (Simulation time: 5 hr 1 min 30 sec) 
 Total Blocks : 262144 Invalid Blocks : 7
Heartbeat CPU 4 instructions: 180000003 cycles: 104480178 heartbeat IPC: 1.66298 cumulative IPC: 1.72281 (Simulation time: 5 hr 18 min 25 sec) 
 Total Blocks : 262144 Invalid Blocks : 2
Heartbeat CPU 6 instructions: 180000003 cycles: 104482428 heartbeat IPC: 1.66293 cumulative IPC: 1.72278 (Simulation time: 5 hr 18 min 26 sec) 
 Total Blocks : 262144 Invalid Blocks : 2
Heartbeat CPU 2 instructions: 180000003 cycles: 104484226 heartbeat IPC: 1.6629 cumulative IPC: 1.72275 (Simulation time: 5 hr 18 min 26 sec) 
 Total Blocks : 262144 Invalid Blocks : 2
Heartbeat CPU 1 instructions: 180000003 cycles: 104485617 heartbeat IPC: 1.66288 cumulative IPC: 1.72273 (Simulation time: 5 hr 18 min 26 sec) 
 Total Blocks : 262144 Invalid Blocks : 2
Heartbeat CPU 5 instructions: 180000003 cycles: 104488139 heartbeat IPC: 1.66284 cumulative IPC: 1.72268 (Simulation time: 5 hr 18 min 26 sec) 
 Total Blocks : 262144 Invalid Blocks : 2
Heartbeat CPU 3 instructions: 180000003 cycles: 104488140 heartbeat IPC: 1.66276 cumulative IPC: 1.72268 (Simulation time: 5 hr 18 min 26 sec) 
 Total Blocks : 262144 Invalid Blocks : 2
Heartbeat CPU 0 instructions: 180000003 cycles: 104490109 heartbeat IPC: 1.66282 cumulative IPC: 1.72265 (Simulation time: 5 hr 18 min 26 sec) 
 Total Blocks : 262144 Invalid Blocks : 2
Heartbeat CPU 7 instructions: 180000003 cycles: 104497606 heartbeat IPC: 1.66264 cumulative IPC: 1.72253 (Simulation time: 5 hr 18 min 27 sec) 
 Total Blocks : 262144 Invalid Blocks : 2
Heartbeat CPU 4 instructions: 190000001 cycles: 112288560 heartbeat IPC: 1.28067 cumulative IPC: 1.69207 (Simulation time: 5 hr 35 min 18 sec) 
 Total Blocks : 262144 Invalid Blocks : 1
Heartbeat CPU 6 instructions: 190000001 cycles: 112291014 heartbeat IPC: 1.28064 cumulative IPC: 1.69203 (Simulation time: 5 hr 35 min 18 sec) 
 Total Blocks : 262144 Invalid Blocks : 1
Heartbeat CPU 2 instructions: 190000001 cycles: 112293252 heartbeat IPC: 1.28057 cumulative IPC: 1.692 (Simulation time: 5 hr 35 min 18 sec) 
 Total Blocks : 262144 Invalid Blocks : 1
Heartbeat CPU 1 instructions: 190000001 cycles: 112294817 heartbeat IPC: 1.28054 cumulative IPC: 1.69197 (Simulation time: 5 hr 35 min 19 sec) 
 Total Blocks : 262144 Invalid Blocks : 1
Heartbeat CPU 5 instructions: 190000001 cycles: 112298456 heartbeat IPC: 1.28036 cumulative IPC: 1.69192 (Simulation time: 5 hr 35 min 19 sec) 
 Total Blocks : 262144 Invalid Blocks : 1
Heartbeat CPU 3 instructions: 190000001 cycles: 112298862 heartbeat IPC: 1.28029 cumulative IPC: 1.69191 (Simulation time: 5 hr 35 min 19 sec) 
 Total Blocks : 262144 Invalid Blocks : 1
Heartbeat CPU 0 instructions: 190000001 cycles: 112301429 heartbeat IPC: 1.28019 cumulative IPC: 1.69188 (Simulation time: 5 hr 35 min 19 sec) 
 Total Blocks : 262144 Invalid Blocks : 1
Heartbeat CPU 7 instructions: 190000001 cycles: 112310088 heartbeat IPC: 1.28 cumulative IPC: 1.69174 (Simulation time: 5 hr 35 min 20 sec) 
 Total Blocks : 262144 Invalid Blocks : 1
Heartbeat CPU 4 instructions: 200000001 cycles: 120481668 heartbeat IPC: 1.22054 cumulative IPC: 1.66 (Simulation time: 5 hr 51 min 18 sec) 
 Total Blocks : 262144 Invalid Blocks : 0
Heartbeat CPU 6 instructions: 200000001 cycles: 120484649 heartbeat IPC: 1.22046 cumulative IPC: 1.65996 (Simulation time: 5 hr 51 min 19 sec) 
 Total Blocks : 262144 Invalid Blocks : 0
Heartbeat CPU 2 instructions: 200000001 cycles: 120487151 heartbeat IPC: 1.22042 cumulative IPC: 1.65993 (Simulation time: 5 hr 51 min 19 sec) 
 Total Blocks : 262144 Invalid Blocks : 0
Heartbeat CPU 1 instructions: 200000001 cycles: 120489563 heartbeat IPC: 1.22029 cumulative IPC: 1.65989 (Simulation time: 5 hr 51 min 19 sec) 
 Total Blocks : 262144 Invalid Blocks : 0
Heartbeat CPU 5 instructions: 200000001 cycles: 120492336 heartbeat IPC: 1.22042 cumulative IPC: 1.65986 (Simulation time: 5 hr 51 min 19 sec) 
 Total Blocks : 262144 Invalid Blocks : 0
Heartbeat CPU 3 instructions: 200000001 cycles: 120492676 heartbeat IPC: 1.22043 cumulative IPC: 1.65985 (Simulation time: 5 hr 51 min 19 sec) 
 Total Blocks : 262144 Invalid Blocks : 0
Heartbeat CPU 0 instructions: 200000001 cycles: 120495490 heartbeat IPC: 1.2204 cumulative IPC: 1.65981 (Simulation time: 5 hr 51 min 20 sec) 
 Total Blocks : 262144 Invalid Blocks : 0
Heartbeat CPU 7 instructions: 200000001 cycles: 120505838 heartbeat IPC: 1.22014 cumulative IPC: 1.65967 (Simulation time: 5 hr 51 min 21 sec) 
 Total Blocks : 262144 Invalid Blocks : 0

Warmup complete CPU 0 instructions: 200011066 cycles: 120505838 (Simulation time: 5 hr 51 min 21 sec) 
Warmup complete CPU 1 instructions: 200018419 cycles: 120505838 (Simulation time: 5 hr 51 min 21 sec) 
Warmup complete CPU 2 instructions: 200021057 cycles: 120505838 (Simulation time: 5 hr 51 min 21 sec) 
Warmup complete CPU 3 instructions: 200014289 cycles: 120505838 (Simulation time: 5 hr 51 min 21 sec) 
Warmup complete CPU 4 instructions: 200027411 cycles: 120505838 (Simulation time: 5 hr 51 min 21 sec) 
Warmup complete CPU 5 instructions: 200014956 cycles: 120505838 (Simulation time: 5 hr 51 min 21 sec) 
Warmup complete CPU 6 instructions: 200024020 cycles: 120505838 (Simulation time: 5 hr 51 min 21 sec) 
Warmup complete CPU 7 instructions: 200000001 cycles: 120505838 (Simulation time: 5 hr 51 min 21 sec) 

Heartbeat CPU 4 instructions: 210000000 cycles: 140331143 heartbeat IPC: 0.503792 cumulative IPC: 0.503023 (Simulation time: 6 hr 18 min 42 sec) 
 Total Blocks : 262144 Invalid Blocks : 0
Heartbeat CPU 2 instructions: 210000000 cycles: 140374279 heartbeat IPC: 0.502838 cumulative IPC: 0.502251 (Simulation time: 6 hr 18 min 47 sec) 
 Total Blocks : 262144 Invalid Blocks : 0
Heartbeat CPU 6 instructions: 210000000 cycles: 140374330 heartbeat IPC: 0.502773 cumulative IPC: 0.502101 (Simulation time: 6 hr 18 min 47 sec) 
 Total Blocks : 262144 Invalid Blocks : 0
Heartbeat CPU 1 instructions: 210000000 cycles: 140396346 heartbeat IPC: 0.502341 cumulative IPC: 0.501826 (Simulation time: 6 hr 18 min 50 sec) 
 Total Blocks : 262144 Invalid Blocks : 0
Heartbeat CPU 5 instructions: 210000000 cycles: 140406172 heartbeat IPC: 0.502163 cumulative IPC: 0.501753 (Simulation time: 6 hr 18 min 52 sec) 
 Total Blocks : 262144 Invalid Blocks : 0
Heartbeat CPU 3 instructions: 210000000 cycles: 140418397 heartbeat IPC: 0.501864 cumulative IPC: 0.501478 (Simulation time: 6 hr 18 min 53 sec) 
 Total Blocks : 262144 Invalid Blocks : 0
Heartbeat CPU 0 instructions: 210000000 cycles: 140438208 heartbeat IPC: 0.501436 cumulative IPC: 0.501141 (Simulation time: 6 hr 18 min 56 sec) 
 Total Blocks : 262144 Invalid Blocks : 0
Heartbeat CPU 7 instructions: 210000000 cycles: 140516928 heartbeat IPC: 0.499723 cumulative IPC: 0.499723 (Simulation time: 6 hr 19 min 8 sec) 
 Total Blocks : 262144 Invalid Blocks : 0
Heartbeat CPU 4 instructions: 220000000 cycles: 154856724 heartbeat IPC: 0.688441 cumulative IPC: 0.581429 (Simulation time: 6 hr 43 min 58 sec) 
 Total Blocks : 262144 Invalid Blocks : 0
Heartbeat CPU 2 instructions: 220000000 cycles: 154900825 heartbeat IPC: 0.688395 cumulative IPC: 0.580868 (Simulation time: 6 hr 44 min 3 sec) 
 Total Blocks : 262144 Invalid Blocks : 0
Heartbeat CPU 6 instructions: 220000000 cycles: 154901067 heartbeat IPC: 0.688386 cumulative IPC: 0.580778 (Simulation time: 6 hr 44 min 3 sec) 
 Total Blocks : 262144 Invalid Blocks : 0
Heartbeat CPU 1 instructions: 220000000 cycles: 154924436 heartbeat IPC: 0.688322 cumulative IPC: 0.580546 (Simulation time: 6 hr 44 min 7 sec) 
 Total Blocks : 262144 Invalid Blocks : 0
Heartbeat CPU 5 instructions: 220000000 cycles: 154933958 heartbeat IPC: 0.688336 cumulative IPC: 0.580486 (Simulation time: 6 hr 44 min 8 sec) 
 Total Blocks : 262144 Invalid Blocks : 0
Heartbeat CPU 3 instructions: 220000000 cycles: 154943491 heartbeat IPC: 0.688464 cumulative IPC: 0.580345 (Simulation time: 6 hr 44 min 9 sec) 
 Total Blocks : 262144 Invalid Blocks : 0
Heartbeat CPU 0 instructions: 220000000 cycles: 154962287 heartbeat IPC: 0.688512 cumulative IPC: 0.580122 (Simulation time: 6 hr 44 min 11 sec) 
 Total Blocks : 262144 Invalid Blocks : 0
Heartbeat CPU 7 instructions: 220000000 cycles: 155040689 heartbeat IPC: 0.688527 cumulative IPC: 0.579125 (Simulation time: 6 hr 44 min 23 sec) 
 Total Blocks : 262144 Invalid Blocks : 0
Heartbeat CPU 4 instructions: 230000003 cycles: 168307385 heartbeat IPC: 0.743458 cumulative IPC: 0.627021 (Simulation time: 7 hr 9 min 18 sec) 
 Total Blocks : 262144 Invalid Blocks : 0
Heartbeat CPU 2 instructions: 230000003 cycles: 168352035 heartbeat IPC: 0.743428 cumulative IPC: 0.626569 (Simulation time: 7 hr 9 min 24 sec) 
 Total Blocks : 262144 Invalid Blocks : 0
Heartbeat CPU 6 instructions: 230000003 cycles: 168352087 heartbeat IPC: 0.743438 cumulative IPC: 0.626506 (Simulation time: 7 hr 9 min 24 sec) 
 Total Blocks : 262144 Invalid Blocks : 0
Heartbeat CPU 1 instructions: 230000003 cycles: 168376639 heartbeat IPC: 0.743373 cumulative IPC: 0.626302 (Simulation time: 7 hr 9 min 26 sec) 
 Total Blocks : 262144 Invalid Blocks : 0
Heartbeat CPU 5 instructions: 230000003 cycles: 168393301 heartbeat IPC: 0.742979 cumulative IPC: 0.626157 (Simulation time: 7 hr 9 min 28 sec) 
 Total Blocks : 262144 Invalid Blocks : 0
Heartbeat CPU 3 instructions: 230000003 cycles: 168394019 heartbeat IPC: 0.743465 cumulative IPC: 0.626161 (Simulation time: 7 hr 9 min 28 sec) 
 Total Blocks : 262144 Invalid Blocks : 0
Heartbeat CPU 0 instructions: 230000003 cycles: 168414845 heartbeat IPC: 0.743353 cumulative IPC: 0.625956 (Simulation time: 7 hr 9 min 30 sec) 
 Total Blocks : 262144 Invalid Blocks : 0
Heartbeat CPU 7 instructions: 230000003 cycles: 168490978 heartbeat IPC: 0.743479 cumulative IPC: 0.625194 (Simulation time: 7 hr 9 min 37 sec) 
 Total Blocks : 262144 Invalid Blocks : 0
Heartbeat CPU 4 instructions: 240000001 cycles: 182663151 heartbeat IPC: 0.696584 cumulative IPC: 0.643088 (Simulation time: 7 hr 36 min 0 sec) 
 Total Blocks : 262144 Invalid Blocks : 0
Heartbeat CPU 6 instructions: 240000001 cycles: 182710457 heartbeat IPC: 0.696458 cumulative IPC: 0.642653 (Simulation time: 7 hr 36 min 4 sec) 
 Total Blocks : 262144 Invalid Blocks : 0
Heartbeat CPU 2 instructions: 240000001 cycles: 182710559 heartbeat IPC: 0.69645 cumulative IPC: 0.6427 (Simulation time: 7 hr 36 min 4 sec) 
 Total Blocks : 262144 Invalid Blocks : 0
Heartbeat CPU 1 instructions: 240000001 cycles: 182727754 heartbeat IPC: 0.69681 cumulative IPC: 0.642564 (Simulation time: 7 hr 36 min 5 sec) 
 Total Blocks : 262144 Invalid Blocks : 0
Heartbeat CPU 5 instructions: 240000001 cycles: 182750227 heartbeat IPC: 0.696528 cumulative IPC: 0.642388 (Simulation time: 7 hr 36 min 6 sec) 
 Total Blocks : 262144 Invalid Blocks : 0
Heartbeat CPU 3 instructions: 240000001 cycles: 182750581 heartbeat IPC: 0.696545 cumulative IPC: 0.642395 (Simulation time: 7 hr 36 min 6 sec) 
 Total Blocks : 262144 Invalid Blocks : 0
Heartbeat CPU 0 instructions: 240000001 cycles: 182771155 heartbeat IPC: 0.696558 cumulative IPC: 0.642235 (Simulation time: 7 hr 36 min 8 sec) 
 Total Blocks : 262144 Invalid Blocks : 0
Heartbeat CPU 7 instructions: 240000001 cycles: 182850096 heartbeat IPC: 0.696421 cumulative IPC: 0.641599 (Simulation time: 7 hr 36 min 15 sec) 
 Total Blocks : 262144 Invalid Blocks : 0
Heartbeat CPU 4 instructions: 250000002 cycles: 197939362 heartbeat IPC: 0.654613 cumulative IPC: 0.645361 (Simulation time: 8 hr 2 min 6 sec) 
 Total Blocks : 262144 Invalid Blocks : 0
Heartbeat CPU 6 instructions: 250000002 cycles: 197983971 heartbeat IPC: 0.654728 cumulative IPC: 0.645033 (Simulation time: 8 hr 2 min 11 sec) 
 Total Blocks : 262144 Invalid Blocks : 0
Heartbeat CPU 2 instructions: 250000002 cycles: 197984073 heartbeat IPC: 0.654728 cumulative IPC: 0.645071 (Simulation time: 8 hr 2 min 11 sec) 
 Total Blocks : 262144 Invalid Blocks : 0
Heartbeat CPU 1 instructions: 250000002 cycles: 197994842 heartbeat IPC: 0.655004 cumulative IPC: 0.645015 (Simulation time: 8 hr 2 min 12 sec) 
 Total Blocks : 262144 Invalid Blocks : 0
Heartbeat CPU 3 instructions: 250000002 cycles: 198027415 heartbeat IPC: 0.654586 cumulative IPC: 0.644797 (Simulation time: 8 hr 2 min 16 sec) 
 Total Blocks : 262144 Invalid Blocks : 0
Heartbeat CPU 5 instructions: 250000002 cycles: 198027518 heartbeat IPC: 0.654566 cumulative IPC: 0.644788 (Simulation time: 8 hr 2 min 16 sec) 
 Total Blocks : 262144 Invalid Blocks : 0
Heartbeat CPU 0 instructions: 250000002 cycles: 198040455 heartbeat IPC: 0.654909 cumulative IPC: 0.644731 (Simulation time: 8 hr 2 min 17 sec) 
 Total Blocks : 262144 Invalid Blocks : 0
Heartbeat CPU 7 instructions: 250000002 cycles: 198124338 heartbeat IPC: 0.654697 cumulative IPC: 0.644176 (Simulation time: 8 hr 2 min 25 sec) 
 Total Blocks : 262144 Invalid Blocks : 0
Heartbeat CPU 4 instructions: 260000002 cycles: 212614303 heartbeat IPC: 0.681434 cumulative IPC: 0.651108 (Simulation time: 8 hr 28 min 20 sec) 
 Total Blocks : 262144 Invalid Blocks : 0
Heartbeat CPU 6 instructions: 260000002 cycles: 212665703 heartbeat IPC: 0.681119 cumulative IPC: 0.650782 (Simulation time: 8 hr 28 min 25 sec) 
 Total Blocks : 262144 Invalid Blocks : 0
Heartbeat CPU 2 instructions: 260000002 cycles: 212665806 heartbeat IPC: 0.681118 cumulative IPC: 0.650813 (Simulation time: 8 hr 28 min 25 sec) 
 Total Blocks : 262144 Invalid Blocks : 0
Heartbeat CPU 1 instructions: 260000002 cycles: 212671129 heartbeat IPC: 0.681371 cumulative IPC: 0.650804 (Simulation time: 8 hr 28 min 26 sec) 
 Total Blocks : 262144 Invalid Blocks : 0
Heartbeat CPU 3 instructions: 260000002 cycles: 212702450 heartbeat IPC: 0.681429 cumulative IPC: 0.650628 (Simulation time: 8 hr 28 min 28 sec) 
 Total Blocks : 262144 Invalid Blocks : 0
Heartbeat CPU 5 instructions: 260000002 cycles: 212702507 heartbeat IPC: 0.681432 cumulative IPC: 0.650621 (Simulation time: 8 hr 28 min 28 sec) 
 Total Blocks : 262144 Invalid Blocks : 0
Heartbeat CPU 0 instructions: 260000002 cycles: 212713880 heartbeat IPC: 0.681504 cumulative IPC: 0.650582 (Simulation time: 8 hr 28 min 29 sec) 
 Total Blocks : 262144 Invalid Blocks : 0
Heartbeat CPU 7 instructions: 260000002 cycles: 212800047 heartbeat IPC: 0.681398 cumulative IPC: 0.650095 (Simulation time: 8 hr 28 min 36 sec) 
 Total Blocks : 262144 Invalid Blocks : 0
Heartbeat CPU 4 instructions: 270000001 cycles: 227611802 heartbeat IPC: 0.666778 cumulative IPC: 0.653302 (Simulation time: 8 hr 55 min 4 sec) 
 Total Blocks : 262144 Invalid Blocks : 0
Heartbeat CPU 6 instructions: 270000001 cycles: 227672089 heartbeat IPC: 0.666383 cumulative IPC: 0.652967 (Simulation time: 8 hr 55 min 9 sec) 
 Total Blocks : 262144 Invalid Blocks : 0
Heartbeat CPU 2 instructions: 270000001 cycles: 227672218 heartbeat IPC: 0.666382 cumulative IPC: 0.652993 (Simulation time: 8 hr 55 min 9 sec) 
 Total Blocks : 262144 Invalid Blocks : 0
Heartbeat CPU 1 instructions: 270000001 cycles: 227678697 heartbeat IPC: 0.66633 cumulative IPC: 0.652979 (Simulation time: 8 hr 55 min 10 sec) 
 Total Blocks : 262144 Invalid Blocks : 0
Heartbeat CPU 5 instructions: 270000001 cycles: 227713571 heartbeat IPC: 0.666175 cumulative IPC: 0.652798 (Simulation time: 8 hr 55 min 13 sec) 
 Total Blocks : 262144 Invalid Blocks : 0
Heartbeat CPU 3 instructions: 270000001 cycles: 227713751 heartbeat IPC: 0.666165 cumulative IPC: 0.652804 (Simulation time: 8 hr 55 min 13 sec) 
 Total Blocks : 262144 Invalid Blocks : 0
Heartbeat CPU 0 instructions: 270000001 cycles: 227720377 heartbeat IPC: 0.666378 cumulative IPC: 0.652793 (Simulation time: 8 hr 55 min 13 sec) 
 Total Blocks : 262144 Invalid Blocks : 0
Heartbeat CPU 7 instructions: 270000001 cycles: 227801721 heartbeat IPC: 0.666592 cumulative IPC: 0.652402 (Simulation time: 8 hr 55 min 22 sec) 
 Total Blocks : 262144 Invalid Blocks : 0
Heartbeat CPU 4 instructions: 280000002 cycles: 242573608 heartbeat IPC: 0.668369 cumulative IPC: 0.655149 (Simulation time: 9 hr 21 min 18 sec) 
 Total Blocks : 262144 Invalid Blocks : 0
Heartbeat CPU 2 instructions: 280000002 cycles: 242647063 heartbeat IPC: 0.667787 cumulative IPC: 0.654807 (Simulation time: 9 hr 21 min 27 sec) 
 Total Blocks : 262144 Invalid Blocks : 0
Heartbeat CPU 1 instructions: 280000002 cycles: 242647699 heartbeat IPC: 0.668047 cumulative IPC: 0.654825 (Simulation time: 9 hr 21 min 28 sec) 
 Total Blocks : 262144 Invalid Blocks : 0
Heartbeat CPU 6 instructions: 280000002 cycles: 242647749 heartbeat IPC: 0.66775 cumulative IPC: 0.654779 (Simulation time: 9 hr 21 min 28 sec) 
 Total Blocks : 262144 Invalid Blocks : 0
Heartbeat CPU 0 instructions: 280000002 cycles: 242690579 heartbeat IPC: 0.667994 cumulative IPC: 0.654656 (Simulation time: 9 hr 21 min 32 sec) 
 Total Blocks : 262144 Invalid Blocks : 0
Heartbeat CPU 5 instructions: 280000002 cycles: 242690653 heartbeat IPC: 0.667687 cumulative IPC: 0.654623 (Simulation time: 9 hr 21 min 32 sec) 
 Total Blocks : 262144 Invalid Blocks : 0
Heartbeat CPU 3 instructions: 280000002 cycles: 242690704 heartbeat IPC: 0.667693 cumulative IPC: 0.654629 (Simulation time: 9 hr 21 min 32 sec) 
 Total Blocks : 262144 Invalid Blocks : 0
Heartbeat CPU 7 instructions: 280000002 cycles: 242762802 heartbeat IPC: 0.668401 cumulative IPC: 0.654359 (Simulation time: 9 hr 21 min 40 sec) 
 Total Blocks : 262144 Invalid Blocks : 0
Heartbeat CPU 4 instructions: 290000001 cycles: 261497181 heartbeat IPC: 0.528441 cumulative IPC: 0.638143 (Simulation time: 9 hr 47 min 56 sec) 
 Total Blocks : 262144 Invalid Blocks : 0
Heartbeat CPU 6 instructions: 290000001 cycles: 261603929 heartbeat IPC: 0.527532 cumulative IPC: 0.637684 (Simulation time: 9 hr 48 min 7 sec) 
 Total Blocks : 262144 Invalid Blocks : 0
Heartbeat CPU 2 instructions: 290000001 cycles: 261604019 heartbeat IPC: 0.527511 cumulative IPC: 0.637704 (Simulation time: 9 hr 48 min 7 sec) 
 Total Blocks : 262144 Invalid Blocks : 0
Heartbeat CPU 1 instructions: 290000001 cycles: 261639538 heartbeat IPC: 0.526542 cumulative IPC: 0.637563 (Simulation time: 9 hr 48 min 11 sec) 
 Total Blocks : 262144 Invalid Blocks : 0
Heartbeat CPU 3 instructions: 290000001 cycles: 261677942 heartbeat IPC: 0.52667 cumulative IPC: 0.637419 (Simulation time: 9 hr 48 min 17 sec) 
 Total Blocks : 262144 Invalid Blocks : 0
Heartbeat CPU 5 instructions: 290000001 cycles: 261678232 heartbeat IPC: 0.52666 cumulative IPC: 0.637412 (Simulation time: 9 hr 48 min 17 sec) 
 Total Blocks : 262144 Invalid Blocks : 0
Heartbeat CPU 0 instructions: 290000001 cycles: 261702433 heartbeat IPC: 0.525988 cumulative IPC: 0.637331 (Simulation time: 9 hr 48 min 19 sec) 
 Total Blocks : 262144 Invalid Blocks : 0
Heartbeat CPU 7 instructions: 290000001 cycles: 261784808 heartbeat IPC: 0.525707 cumulative IPC: 0.637038 (Simulation time: 9 hr 48 min 27 sec) 
 Total Blocks : 262144 Invalid Blocks : 0
Heartbeat CPU 4 instructions: 300000001 cycles: 288649065 heartbeat IPC: 0.368299 cumulative IPC: 0.594568 (Simulation time: 10 hr 17 min 30 sec) 
 Total Blocks : 262144 Invalid Blocks : 0
Heartbeat CPU 2 instructions: 300000001 cycles: 288770515 heartbeat IPC: 0.3681 cumulative IPC: 0.594177 (Simulation time: 10 hr 17 min 44 sec) 
 Total Blocks : 262144 Invalid Blocks : 0
Heartbeat CPU 6 instructions: 300000001 cycles: 288770857 heartbeat IPC: 0.368095 cumulative IPC: 0.594158 (Simulation time: 10 hr 17 min 44 sec) 
 Total Blocks : 262144 Invalid Blocks : 0
Heartbeat CPU 1 instructions: 300000001 cycles: 288915683 heartbeat IPC: 0.366621 cumulative IPC: 0.59368 (Simulation time: 10 hr 18 min 0 sec) 
 Total Blocks : 262144 Invalid Blocks : 0
Heartbeat CPU 3 instructions: 300000001 cycles: 288949780 heartbeat IPC: 0.366679 cumulative IPC: 0.593584 (Simulation time: 10 hr 18 min 4 sec) 
 Total Blocks : 262144 Invalid Blocks : 0
Heartbeat CPU 5 instructions: 300000001 cycles: 288961221 heartbeat IPC: 0.366529 cumulative IPC: 0.59354 (Simulation time: 10 hr 18 min 5 sec) 
 Total Blocks : 262144 Invalid Blocks : 0
Heartbeat CPU 0 instructions: 300000001 cycles: 289038070 heartbeat IPC: 0.365823 cumulative IPC: 0.593293 (Simulation time: 10 hr 18 min 13 sec) 
 Total Blocks : 262144 Invalid Blocks : 0
Heartbeat CPU 7 instructions: 300000001 cycles: 289188724 heartbeat IPC: 0.364911 cumulative IPC: 0.592828 (Simulation time: 10 hr 18 min 28 sec) 
 Total Blocks : 262144 Invalid Blocks : 0
Heartbeat CPU 4 instructions: 310000001 cycles: 315703529 heartbeat IPC: 0.369625 cumulative IPC: 0.563391 (Simulation time: 10 hr 45 min 50 sec) 
 Total Blocks : 262144 Invalid Blocks : 0
Heartbeat CPU 6 instructions: 310000001 cycles: 315845851 heartbeat IPC: 0.369345 cumulative IPC: 0.562998 (Simulation time: 10 hr 45 min 58 sec) 
 Total Blocks : 262144 Invalid Blocks : 0
Heartbeat CPU 2 instructions: 310000001 cycles: 315859630 heartbeat IPC: 0.369152 cumulative IPC: 0.562973 (Simulation time: 10 hr 45 min 59 sec) 
 Total Blocks : 262144 Invalid Blocks : 0
Heartbeat CPU 3 instructions: 310000000 cycles: 316087416 heartbeat IPC: 0.368492 cumulative IPC: 0.562352 (Simulation time: 10 hr 46 min 12 sec) 
 Total Blocks : 262144 Invalid Blocks : 0
Heartbeat CPU 5 instructions: 310000001 cycles: 316131770 heartbeat IPC: 0.368046 cumulative IPC: 0.562221 (Simulation time: 10 hr 46 min 15 sec) 
 Total Blocks : 262144 Invalid Blocks : 0
Heartbeat CPU 1 instructions: 310000000 cycles: 316139476 heartbeat IPC: 0.367326 cumulative IPC: 0.562181 (Simulation time: 10 hr 46 min 15 sec) 
 Total Blocks : 262144 Invalid Blocks : 0
Heartbeat CPU 0 instructions: 310000001 cycles: 316221551 heartbeat IPC: 0.36787 cumulative IPC: 0.561983 (Simulation time: 10 hr 46 min 19 sec) 
 Total Blocks : 262144 Invalid Blocks : 0
Heartbeat CPU 7 instructions: 310000001 cycles: 316447461 heartbeat IPC: 0.366855 cumulative IPC: 0.561392 (Simulation time: 10 hr 46 min 30 sec) 
 Total Blocks : 262144 Invalid Blocks : 0
Heartbeat CPU 4 instructions: 320000002 cycles: 336690389 heartbeat IPC: 0.476489 cumulative IPC: 0.554955 (Simulation time: 11 hr 12 min 0 sec) 
 Total Blocks : 262144 Invalid Blocks : 0
Heartbeat CPU 6 instructions: 320000002 cycles: 336861507 heartbeat IPC: 0.475836 cumulative IPC: 0.554531 (Simulation time: 11 hr 12 min 15 sec) 
 Total Blocks : 262144 Invalid Blocks : 0
Heartbeat CPU 2 instructions: 320000002 cycles: 336887493 heartbeat IPC: 0.47556 cumulative IPC: 0.554478 (Simulation time: 11 hr 12 min 17 sec) 
 Total Blocks : 262144 Invalid Blocks : 0
Heartbeat CPU 3 instructions: 320000002 cycles: 337156102 heartbeat IPC: 0.474638 cumulative IPC: 0.553822 (Simulation time: 11 hr 12 min 42 sec) 
 Total Blocks : 262144 Invalid Blocks : 0
Heartbeat CPU 1 instructions: 320000002 cycles: 337191874 heartbeat IPC: 0.475005 cumulative IPC: 0.553712 (Simulation time: 11 hr 12 min 44 sec) 
 Total Blocks : 262144 Invalid Blocks : 0
Heartbeat CPU 5 instructions: 320000002 cycles: 337203779 heartbeat IPC: 0.474563 cumulative IPC: 0.553697 (Simulation time: 11 hr 12 min 45 sec) 
 Total Blocks : 262144 Invalid Blocks : 0
Heartbeat CPU 0 instructions: 320000002 cycles: 337301082 heartbeat IPC: 0.474394 cumulative IPC: 0.553467 (Simulation time: 11 hr 12 min 54 sec) 
 Total Blocks : 262144 Invalid Blocks : 0
Heartbeat CPU 7 instructions: 320000002 cycles: 337574275 heartbeat IPC: 0.473332 cumulative IPC: 0.552821 (Simulation time: 11 hr 13 min 17 sec) 
 Total Blocks : 262144 Invalid Blocks : 0
Heartbeat CPU 4 instructions: 330000000 cycles: 350212612 heartbeat IPC: 0.739523 cumulative IPC: 0.56582 (Simulation time: 11 hr 34 min 36 sec) 
 Total Blocks : 262144 Invalid Blocks : 0
Heartbeat CPU 6 instructions: 330000000 cycles: 350387925 heartbeat IPC: 0.739294 cumulative IPC: 0.565403 (Simulation time: 11 hr 34 min 53 sec) 
 Total Blocks : 262144 Invalid Blocks : 0
Heartbeat CPU 2 instructions: 330000000 cycles: 350417870 heartbeat IPC: 0.739078 cumulative IPC: 0.565342 (Simulation time: 11 hr 34 min 56 sec) 
 Total Blocks : 262144 Invalid Blocks : 0
Heartbeat CPU 3 instructions: 330000000 cycles: 350681366 heartbeat IPC: 0.739357 cumulative IPC: 0.564724 (Simulation time: 11 hr 35 min 21 sec) 
 Total Blocks : 262144 Invalid Blocks : 0
Heartbeat CPU 1 instructions: 330000000 cycles: 350719144 heartbeat IPC: 0.739247 cumulative IPC: 0.564614 (Simulation time: 11 hr 35 min 25 sec) 
 Total Blocks : 262144 Invalid Blocks : 0
Heartbeat CPU 5 instructions: 330000000 cycles: 350731886 heartbeat IPC: 0.739202 cumulative IPC: 0.564597 (Simulation time: 11 hr 35 min 26 sec) 
 Total Blocks : 262144 Invalid Blocks : 0
Heartbeat CPU 0 instructions: 330000000 cycles: 350822460 heartbeat IPC: 0.739569 cumulative IPC: 0.564392 (Simulation time: 11 hr 35 min 35 sec) 
 Total Blocks : 262144 Invalid Blocks : 0
Heartbeat CPU 7 instructions: 330000000 cycles: 351098521 heartbeat IPC: 0.739413 cumulative IPC: 0.563765 (Simulation time: 11 hr 36 min 2 sec) 
 Total Blocks : 262144 Invalid Blocks : 0
Heartbeat CPU 4 instructions: 340000003 cycles: 364573599 heartbeat IPC: 0.696331 cumulative IPC: 0.573499 (Simulation time: 11 hr 57 min 41 sec) 
 Total Blocks : 262144 Invalid Blocks : 0
Heartbeat CPU 6 instructions: 340000003 cycles: 364755791 heartbeat IPC: 0.695998 cumulative IPC: 0.573085 (Simulation time: 11 hr 57 min 58 sec) 
 Total Blocks : 262144 Invalid Blocks : 0
Heartbeat CPU 2 instructions: 340000003 cycles: 364789227 heartbeat IPC: 0.695829 cumulative IPC: 0.573019 (Simulation time: 11 hr 58 min 2 sec) 
 Total Blocks : 262144 Invalid Blocks : 0
Heartbeat CPU 3 instructions: 340000003 cycles: 365059567 heartbeat IPC: 0.695498 cumulative IPC: 0.572413 (Simulation time: 11 hr 58 min 25 sec) 
 Total Blocks : 262144 Invalid Blocks : 0
Heartbeat CPU 5 instructions: 340000003 cycles: 365099366 heartbeat IPC: 0.696016 cumulative IPC: 0.572317 (Simulation time: 11 hr 58 min 29 sec) 
 Total Blocks : 262144 Invalid Blocks : 0
Heartbeat CPU 1 instructions: 340000003 cycles: 365099617 heartbeat IPC: 0.695388 cumulative IPC: 0.572302 (Simulation time: 11 hr 58 min 29 sec) 
 Total Blocks : 262144 Invalid Blocks : 0
Heartbeat CPU 0 instructions: 340000003 cycles: 365186922 heartbeat IPC: 0.696163 cumulative IPC: 0.572128 (Simulation time: 11 hr 58 min 37 sec) 
 Total Blocks : 262144 Invalid Blocks : 0
Heartbeat CPU 7 instructions: 340000003 cycles: 365459782 heartbeat IPC: 0.696318 cumulative IPC: 0.571536 (Simulation time: 11 hr 59 min 0 sec) 
 Total Blocks : 262144 Invalid Blocks : 0
Heartbeat CPU 4 instructions: 350000001 cycles: 378842786 heartbeat IPC: 0.700811 cumulative IPC: 0.580531 (Simulation time: 12 hr 20 min 18 sec) 
 Total Blocks : 262144 Invalid Blocks : 0
Heartbeat CPU 6 instructions: 350000001 cycles: 379027496 heartbeat IPC: 0.700687 cumulative IPC: 0.580129 (Simulation time: 12 hr 20 min 39 sec) 
 Total Blocks : 262144 Invalid Blocks : 0
Heartbeat CPU 2 instructions: 350000001 cycles: 379072671 heartbeat IPC: 0.700111 cumulative IPC: 0.580039 (Simulation time: 12 hr 20 min 44 sec) 
 Total Blocks : 262144 Invalid Blocks : 0
Heartbeat CPU 3 instructions: 350000001 cycles: 379349609 heartbeat IPC: 0.699788 cumulative IPC: 0.579445 (Simulation time: 12 hr 21 min 13 sec) 
 Total Blocks : 262144 Invalid Blocks : 0
Heartbeat CPU 1 instructions: 350000001 cycles: 379387020 heartbeat IPC: 0.699917 cumulative IPC: 0.579345 (Simulation time: 12 hr 21 min 17 sec) 
 Total Blocks : 262144 Invalid Blocks : 0
Heartbeat CPU 5 instructions: 350000001 cycles: 379387071 heartbeat IPC: 0.699902 cumulative IPC: 0.579359 (Simulation time: 12 hr 21 min 17 sec) 
 Total Blocks : 262144 Invalid Blocks : 0
Heartbeat CPU 0 instructions: 350000001 cycles: 379464787 heartbeat IPC: 0.700385 cumulative IPC: 0.5792 (Simulation time: 12 hr 21 min 25 sec) 
 Total Blocks : 262144 Invalid Blocks : 0
Heartbeat CPU 7 instructions: 350000001 cycles: 379739305 heartbeat IPC: 0.700303 cumulative IPC: 0.578629 (Simulation time: 12 hr 21 min 50 sec) 
 Total Blocks : 262144 Invalid Blocks : 0
Heartbeat CPU 4 instructions: 360000001 cycles: 393284725 heartbeat IPC: 0.692428 cumulative IPC: 0.586455 (Simulation time: 12 hr 43 min 33 sec) 
 Total Blocks : 262144 Invalid Blocks : 0
Heartbeat CPU 6 instructions: 360000001 cycles: 393459836 heartbeat IPC: 0.692888 cumulative IPC: 0.586091 (Simulation time: 12 hr 43 min 50 sec) 
 Total Blocks : 262144 Invalid Blocks : 0
Heartbeat CPU 2 instructions: 360000001 cycles: 393521715 heartbeat IPC: 0.692087 cumulative IPC: 0.585969 (Simulation time: 12 hr 43 min 55 sec) 
 Total Blocks : 262144 Invalid Blocks : 0
Heartbeat CPU 3 instructions: 360000001 cycles: 393800587 heartbeat IPC: 0.691995 cumulative IPC: 0.585396 (Simulation time: 12 hr 44 min 21 sec) 
 Total Blocks : 262144 Invalid Blocks : 0
Heartbeat CPU 5 instructions: 360000001 cycles: 393842555 heartbeat IPC: 0.691779 cumulative IPC: 0.585304 (Simulation time: 12 hr 44 min 25 sec) 
 Total Blocks : 262144 Invalid Blocks : 0
Heartbeat CPU 1 instructions: 360000001 cycles: 393842657 heartbeat IPC: 0.691772 cumulative IPC: 0.585291 (Simulation time: 12 hr 44 min 25 sec) 
 Total Blocks : 262144 Invalid Blocks : 0
Heartbeat CPU 0 instructions: 360000001 cycles: 393907744 heartbeat IPC: 0.692379 cumulative IPC: 0.585179 (Simulation time: 12 hr 44 min 32 sec) 
 Total Blocks : 262144 Invalid Blocks : 0
Heartbeat CPU 7 instructions: 360000001 cycles: 394176459 heartbeat IPC: 0.692657 cumulative IPC: 0.584644 (Simulation time: 12 hr 44 min 56 sec) 
 Total Blocks : 262144 Invalid Blocks : 0
Heartbeat CPU 4 instructions: 370000001 cycles: 421136621 heartbeat IPC: 0.359042 cumulative IPC: 0.565387 (Simulation time: 13 hr 10 min 4 sec) 
 Total Blocks : 262144 Invalid Blocks : 0
Heartbeat CPU 6 instructions: 370000001 cycles: 421408453 heartbeat IPC: 0.357799 cumulative IPC: 0.564887 (Simulation time: 13 hr 10 min 20 sec) 
 Total Blocks : 262144 Invalid Blocks : 0
Heartbeat CPU 2 instructions: 370000001 cycles: 421506430 heartbeat IPC: 0.357338 cumulative IPC: 0.564713 (Simulation time: 13 hr 10 min 25 sec) 
 Total Blocks : 262144 Invalid Blocks : 0
Heartbeat CPU 3 instructions: 370000001 cycles: 421888815 heartbeat IPC: 0.356021 cumulative IPC: 0.564019 (Simulation time: 13 hr 10 min 46 sec) 
 Total Blocks : 262144 Invalid Blocks : 0
Heartbeat CPU 5 instructions: 370000001 cycles: 421891436 heartbeat IPC: 0.35652 cumulative IPC: 0.564012 (Simulation time: 13 hr 10 min 46 sec) 
 Total Blocks : 262144 Invalid Blocks : 0
Heartbeat CPU 1 instructions: 370000001 cycles: 421901173 heartbeat IPC: 0.356398 cumulative IPC: 0.563982 (Simulation time: 13 hr 10 min 47 sec) 
 Total Blocks : 262144 Invalid Blocks : 0
Heartbeat CPU 0 instructions: 370000001 cycles: 422027115 heartbeat IPC: 0.355627 cumulative IPC: 0.563771 (Simulation time: 13 hr 10 min 54 sec) 
 Total Blocks : 262144 Invalid Blocks : 0
Heartbeat CPU 7 instructions: 370000001 cycles: 422360531 heartbeat IPC: 0.35481 cumulative IPC: 0.563185 (Simulation time: 13 hr 11 min 12 sec) 
 Total Blocks : 262144 Invalid Blocks : 0
Heartbeat CPU 4 instructions: 380000000 cycles: 447234535 heartbeat IPC: 0.383172 cumulative IPC: 0.550832 (Simulation time: 13 hr 35 min 36 sec) 
 Total Blocks : 262144 Invalid Blocks : 0
Heartbeat CPU 6 instructions: 380000000 cycles: 447610148 heartbeat IPC: 0.381655 cumulative IPC: 0.55021 (Simulation time: 13 hr 35 min 58 sec) 
 Total Blocks : 262144 Invalid Blocks : 0
Heartbeat CPU 2 instructions: 380000000 cycles: 447691946 heartbeat IPC: 0.38189 cumulative IPC: 0.550081 (Simulation time: 13 hr 36 min 3 sec) 
 Total Blocks : 262144 Invalid Blocks : 0
Heartbeat CPU 3 instructions: 380000000 cycles: 448114096 heartbeat IPC: 0.381311 cumulative IPC: 0.549393 (Simulation time: 13 hr 36 min 30 sec) 
 Total Blocks : 262144 Invalid Blocks : 0
Heartbeat CPU 5 instructions: 380000000 cycles: 448126447 heartbeat IPC: 0.38117 cumulative IPC: 0.54937 (Simulation time: 13 hr 36 min 31 sec) 
 Total Blocks : 262144 Invalid Blocks : 0
Heartbeat CPU 1 instructions: 380000000 cycles: 448201003 heartbeat IPC: 0.380231 cumulative IPC: 0.549235 (Simulation time: 13 hr 36 min 36 sec) 
 Total Blocks : 262144 Invalid Blocks : 0
Heartbeat CPU 0 instructions: 380000000 cycles: 448272327 heartbeat IPC: 0.381022 cumulative IPC: 0.549138 (Simulation time: 13 hr 36 min 40 sec) 
 Total Blocks : 262144 Invalid Blocks : 0
Heartbeat CPU 7 instructions: 380000000 cycles: 448628548 heartbeat IPC: 0.380691 cumulative IPC: 0.548575 (Simulation time: 13 hr 37 min 2 sec) 
 Total Blocks : 262144 Invalid Blocks : 0
Heartbeat CPU 4 instructions: 390000003 cycles: 468955889 heartbeat IPC: 0.460377 cumulative IPC: 0.545193 (Simulation time: 13 hr 59 min 17 sec) 
 Total Blocks : 262144 Invalid Blocks : 0
Heartbeat CPU 6 instructions: 390000003 cycles: 469345530 heartbeat IPC: 0.460079 cumulative IPC: 0.544594 (Simulation time: 13 hr 59 min 54 sec) 
 Total Blocks : 262144 Invalid Blocks : 0
Heartbeat CPU 2 instructions: 390000003 cycles: 469406551 heartbeat IPC: 0.46052 cumulative IPC: 0.544507 (Simulation time: 14 hr 0 min 0 sec) 
 Total Blocks : 262144 Invalid Blocks : 0
Heartbeat CPU 5 instructions: 390000003 cycles: 469880936 heartbeat IPC: 0.459675 cumulative IPC: 0.543785 (Simulation time: 14 hr 0 min 46 sec) 
 Total Blocks : 262144 Invalid Blocks : 0
Heartbeat CPU 3 instructions: 390000003 cycles: 469881011 heartbeat IPC: 0.459413 cumulative IPC: 0.543787 (Simulation time: 14 hr 0 min 46 sec) 
 Total Blocks : 262144 Invalid Blocks : 0
Heartbeat CPU 1 instructions: 390000003 cycles: 469942800 heartbeat IPC: 0.459944 cumulative IPC: 0.543679 (Simulation time: 14 hr 0 min 52 sec) 
 Total Blocks : 262144 Invalid Blocks : 0
Heartbeat CPU 0 instructions: 390000003 cycles: 470059516 heartbeat IPC: 0.458985 cumulative IPC: 0.543519 (Simulation time: 14 hr 1 min 4 sec) 
 Total Blocks : 262144 Invalid Blocks : 0
Heartbeat CPU 7 instructions: 390000003 cycles: 470463438 heartbeat IPC: 0.457983 cumulative IPC: 0.542923 (Simulation time: 14 hr 1 min 34 sec) 
 Total Blocks : 262144 Invalid Blocks : 0
Heartbeat CPU 4 instructions: 400000000 cycles: 481493124 heartbeat IPC: 0.797624 cumulative IPC: 0.55396 (Simulation time: 14 hr 20 min 15 sec) 
 Total Blocks : 262144 Invalid Blocks : 0
Finished CPU 4 instructions: 200000001 cycles: 361020192 cumulative IPC: 0.553986 (Simulation time: 14 hr 20 min 18 sec) 
Heartbeat CPU 6 instructions: 400000000 cycles: 481884597 heartbeat IPC: 0.797507 cumulative IPC: 0.553369 (Simulation time: 14 hr 20 min 50 sec) 
 Total Blocks : 262144 Invalid Blocks : 0
Finished CPU 6 instructions: 200000003 cycles: 361407922 cumulative IPC: 0.553391 (Simulation time: 14 hr 20 min 53 sec) 
Heartbeat CPU 2 instructions: 400000000 cycles: 481945334 heartbeat IPC: 0.797525 cumulative IPC: 0.553285 (Simulation time: 14 hr 20 min 56 sec) 
 Total Blocks : 262144 Invalid Blocks : 0
Finished CPU 2 instructions: 200000000 cycles: 361464132 cumulative IPC: 0.553305 (Simulation time: 14 hr 20 min 58 sec) 
Heartbeat CPU 5 instructions: 400000000 cycles: 482420848 heartbeat IPC: 0.797454 cumulative IPC: 0.552575 (Simulation time: 14 hr 21 min 39 sec) 
 Total Blocks : 262144 Invalid Blocks : 0
Heartbeat CPU 3 instructions: 400000000 cycles: 482420943 heartbeat IPC: 0.797452 cumulative IPC: 0.552576 (Simulation time: 14 hr 21 min 39 sec) 
 Total Blocks : 262144 Invalid Blocks : 0
Finished CPU 3 instructions: 200000000 cycles: 361932180 cumulative IPC: 0.55259 (Simulation time: 14 hr 21 min 41 sec) 
Finished CPU 5 instructions: 200000003 cycles: 361932434 cumulative IPC: 0.552589 (Simulation time: 14 hr 21 min 41 sec) 
Heartbeat CPU 1 instructions: 400000000 cycles: 482481921 heartbeat IPC: 0.797504 cumulative IPC: 0.552472 (Simulation time: 14 hr 21 min 45 sec) 
 Total Blocks : 262144 Invalid Blocks : 0
Finished CPU 1 instructions: 200000003 cycles: 361997426 cumulative IPC: 0.55249 (Simulation time: 14 hr 21 min 47 sec) 
Heartbeat CPU 0 instructions: 400000000 cycles: 482597914 heartbeat IPC: 0.79755 cumulative IPC: 0.552315 (Simulation time: 14 hr 21 min 57 sec) 
 Total Blocks : 262144 Invalid Blocks : 0
Finished CPU 0 instructions: 200000001 cycles: 362105591 cumulative IPC: 0.552325 (Simulation time: 14 hr 21 min 58 sec) 
Heartbeat CPU 7 instructions: 400000000 cycles: 483002660 heartbeat IPC: 0.797497 cumulative IPC: 0.551729 (Simulation time: 14 hr 22 min 35 sec) 
 Total Blocks : 262144 Invalid Blocks : 0
Finished CPU 7 instructions: 200000000 cycles: 362496830 cumulative IPC: 0.551729 (Simulation time: 14 hr 22 min 35 sec) 

CPU 0 Branch Prediction Accuracy: 96.1893% MPKI: 5.399 Average ROB Occupancy at Mispredict: 136.344

CPU 1 Branch Prediction Accuracy: 96.1898% MPKI: 5.39793 Average ROB Occupancy at Mispredict: 136.36

CPU 2 Branch Prediction Accuracy: 96.1915% MPKI: 5.39471 Average ROB Occupancy at Mispredict: 136.39

CPU 3 Branch Prediction Accuracy: 96.1899% MPKI: 5.39781 Average ROB Occupancy at Mispredict: 136.352

CPU 4 Branch Prediction Accuracy: 96.193% MPKI: 5.39166 Average ROB Occupancy at Mispredict: 136.428

CPU 5 Branch Prediction Accuracy: 96.1899% MPKI: 5.3978 Average ROB Occupancy at Mispredict: 136.359

CPU 6 Branch Prediction Accuracy: 96.1917% MPKI: 5.39422 Average ROB Occupancy at Mispredict: 136.386

CPU 7 Branch Prediction Accuracy: 96.1878% MPKI: 5.40214 Average ROB Occupancy at Mispredict: 136.32

ChampSim completed all CPUs

Total Simulation Statistics (not including warmup)

CPU 0 cumulative IPC: 0.552664 instructions: 200338946 cycles: 362496830
ITLB TOTAL     ACCESS: 31184090  HIT: 31140968  MISS: 43122  HIT %: 99.8617  MISS %: 0.138282  AVERAGE MISS PENALTY: 10.8731
ITLB LOAD      ACCESS: 31184090  HIT: 31140968  MISS: 43122  HIT %: 99.8617  MISS %: 0.138282  AVERAGE MISS PENALTY: 10.8731
ITLB RFO       ACCESS:     0  HIT:     0  MISS:     0  HIT %:     0  MISS %:     0  AVERAGE MISS PENALTY: 0
ITLB PREFETCH  ACCESS:     0  HIT:     0  MISS:     0  HIT %:     0  MISS %:     0  AVERAGE MISS PENALTY: 0
ITLB WRITEBACK ACCESS:     0  HIT:     0  MISS:     0  HIT %:     0  MISS %:     0  AVERAGE MISS PENALTY: 0

DTLB TOTAL     ACCESS: 52277725  HIT: 51830383  MISS: 447342  HIT %: 99.1443  MISS %: 0.855703  AVERAGE MISS PENALTY: 13.2085
DTLB LOAD      ACCESS: 30767746  HIT: 30358593  MISS: 409153  HIT %: 98.6702  MISS %: 1.32981  AVERAGE MISS PENALTY: 13.1129
DTLB RFO       ACCESS: 21509979  HIT: 21471790  MISS: 38189  HIT %: 99.8225  MISS %: 0.177541  AVERAGE MISS PENALTY: 14.232
DTLB PREFETCH  ACCESS:     0  HIT:     0  MISS:     0  HIT %:     0  MISS %:     0  AVERAGE MISS PENALTY: 0
DTLB WRITEBACK ACCESS:     0  HIT:     0  MISS:     0  HIT %:     0  MISS %:     0  AVERAGE MISS PENALTY: 0

STLB TOTAL     ACCESS: 490464  HIT: 472115  MISS: 18349  HIT %: 96.2588  MISS %: 3.74115  AVERAGE MISS PENALTY: 100
STLB LOAD      ACCESS: 452275  HIT: 435853  MISS: 16422  HIT %: 96.369  MISS %: 3.63098  AVERAGE MISS PENALTY: 100
STLB RFO       ACCESS: 38189  HIT: 36262  MISS:  1927  HIT %: 94.954  MISS %: 5.04596  AVERAGE MISS PENALTY: 100
STLB PREFETCH  ACCESS:     0  HIT:     0  MISS:     0  HIT %:     0  MISS %:     0  AVERAGE MISS PENALTY: 0
STLB WRITEBACK ACCESS:     0  HIT:     0  MISS:     0  HIT %:     0  MISS %:     0  AVERAGE MISS PENALTY: 0

L1D TOTAL     ACCESS: 84595689  HIT: 83561765  MISS: 1033924  HIT %: 98.7778  MISS %: 1.22219  AVERAGE MISS PENALTY: 2.55876e+06
L1D LOAD      ACCESS: 33989671  HIT: 33639813  MISS: 349858  HIT %: 98.9707  MISS %: 1.02931  AVERAGE MISS PENALTY: 7.35683e+06
L1D RFO       ACCESS: 40174134  HIT: 40140211  MISS: 33923  HIT %: 99.9156  MISS %: 0.0844399  AVERAGE MISS PENALTY: 2.11263e+06
L1D PREFETCH  ACCESS: 10431884  HIT: 9781741  MISS: 650143  HIT %: 93.7677  MISS %: 6.23227  AVERAGE MISS PENALTY: 81.6514
L1D WRITEBACK ACCESS:     0  HIT:     0  MISS:     0  HIT %:     0  MISS %:     0  AVERAGE MISS PENALTY: 0

L1I TOTAL     ACCESS: 43015903  HIT: 42378298  MISS: 637605  HIT %: 98.5177  MISS %: 1.48225  AVERAGE MISS PENALTY: 29.4996
L1I LOAD      ACCESS: 43015903  HIT: 42378298  MISS: 637605  HIT %: 98.5177  MISS %: 1.48225  AVERAGE MISS PENALTY: 29.4996
L1I RFO       ACCESS:     0  HIT:     0  MISS:     0  HIT %:     0  MISS %:     0  AVERAGE MISS PENALTY: 0
L1I PREFETCH  ACCESS:     0  HIT:     0  MISS:     0  HIT %:     0  MISS %:     0  AVERAGE MISS PENALTY: 0
L1I WRITEBACK ACCESS:     0  HIT:     0  MISS:     0  HIT %:     0  MISS %:     0  AVERAGE MISS PENALTY: 0

L2C TOTAL     ACCESS: 2612528  HIT: 1719793  MISS: 892735  HIT %: 65.8287  MISS %: 34.1713  AVERAGE MISS PENALTY: 4.29117e+06
L2C LOAD      ACCESS: 986187  HIT: 637864  MISS: 348323  HIT %: 64.6798  MISS %: 35.3202  AVERAGE MISS PENALTY: 1.09709e+07
L2C RFO       ACCESS: 33717  HIT: 22097  MISS: 11620  HIT %: 65.5367  MISS %: 34.4633  AVERAGE MISS PENALTY: 806695
L2C PREFETCH  ACCESS: 1441436  HIT: 917035  MISS: 524401  HIT %: 63.6195  MISS %: 36.3805  AVERAGE MISS PENALTY: 139.658
L2C WRITEBACK ACCESS: 151188  HIT: 142797  MISS:  8391  HIT %: 94.45  MISS %: 5.55004  AVERAGE MISS PENALTY: 0


LLC0 TOTAL     ACCESS: 112031  HIT: 63187  MISS: 48844  HIT %: 56.4014  MISS %: 43.5986  AVERAGE MISS PENALTY: 182.379
LLC0 LOAD      ACCESS: 40879  HIT: 27182  MISS: 13697  HIT %: 66.4938  MISS %: 33.5062  AVERAGE MISS PENALTY: 183.83
LLC0 RFO       ACCESS:  1560  HIT:   608  MISS:   952  HIT %: 38.9744  MISS %: 61.0256  AVERAGE MISS PENALTY: 184.384
LLC0 PREFETCH  ACCESS: 61904  HIT: 28778  MISS: 33126  HIT %: 46.4881  MISS %: 53.5119  AVERAGE MISS PENALTY: 187.608
LLC0 WRITEBACK ACCESS:  7688  HIT:  6619  MISS:  1069  HIT %: 86.0952  MISS %: 13.9048  AVERAGE MISS PENALTY: 0

LLC1 TOTAL     ACCESS: 112851  HIT: 62183  MISS: 50668  HIT %: 55.1019  MISS %: 44.8981  AVERAGE MISS PENALTY: 182.929
LLC1 LOAD      ACCESS: 38667  HIT: 25350  MISS: 13317  HIT %: 65.5598  MISS %: 34.4402  AVERAGE MISS PENALTY: 185.527
LLC1 RFO       ACCESS:  1518  HIT:   561  MISS:   957  HIT %: 36.9565  MISS %: 63.0435  AVERAGE MISS PENALTY: 186.433
LLC1 PREFETCH  ACCESS: 64856  HIT: 29623  MISS: 35233  HIT %: 45.675  MISS %: 54.325  AVERAGE MISS PENALTY: 187.88
LLC1 WRITEBACK ACCESS:  7810  HIT:  6649  MISS:  1161  HIT %: 85.1344  MISS %: 14.8656  AVERAGE MISS PENALTY: 0

LLC2 TOTAL     ACCESS: 116501  HIT: 65183  MISS: 51318  HIT %: 55.9506  MISS %: 44.0494  AVERAGE MISS PENALTY: 184.692
LLC2 LOAD      ACCESS: 40462  HIT: 27255  MISS: 13207  HIT %: 67.3595  MISS %: 32.6405  AVERAGE MISS PENALTY: 185.897
LLC2 RFO       ACCESS:  1431  HIT:   518  MISS:   913  HIT %: 36.1985  MISS %: 63.8015  AVERAGE MISS PENALTY: 183.162
LLC2 PREFETCH  ACCESS: 66815  HIT: 30743  MISS: 36072  HIT %: 46.0121  MISS %: 53.9879  AVERAGE MISS PENALTY: 190.054
LLC2 WRITEBACK ACCESS:  7793  HIT:  6667  MISS:  1126  HIT %: 85.5511  MISS %: 14.4489  AVERAGE MISS PENALTY: 0

LLC3 TOTAL     ACCESS: 119843  HIT: 68257  MISS: 51586  HIT %: 56.9553  MISS %: 43.0447  AVERAGE MISS PENALTY: 185.122
LLC3 LOAD      ACCESS: 46354  HIT: 32913  MISS: 13441  HIT %: 71.0036  MISS %: 28.9964  AVERAGE MISS PENALTY: 186.45
LLC3 RFO       ACCESS:  1412  HIT:   459  MISS:   953  HIT %: 32.5071  MISS %: 67.4929  AVERAGE MISS PENALTY: 179.882
LLC3 PREFETCH  ACCESS: 64606  HIT: 28553  MISS: 36053  HIT %: 44.1956  MISS %: 55.8044  AVERAGE MISS PENALTY: 190.614
LLC3 WRITEBACK ACCESS:  7471  HIT:  6332  MISS:  1139  HIT %: 84.7544  MISS %: 15.2456  AVERAGE MISS PENALTY: 0

LLC4 TOTAL     ACCESS: 125610  HIT: 74056  MISS: 51554  HIT %: 58.9571  MISS %: 41.0429  AVERAGE MISS PENALTY: 183.46
LLC4 LOAD      ACCESS: 45300  HIT: 32303  MISS: 12997  HIT %: 71.3091  MISS %: 28.6909  AVERAGE MISS PENALTY: 184.933
LLC4 RFO       ACCESS:  1462  HIT:   525  MISS:   937  HIT %: 35.9097  MISS %: 64.0903  AVERAGE MISS PENALTY: 186.702
LLC4 PREFETCH  ACCESS: 70184  HIT: 33714  MISS: 36470  HIT %: 48.0366  MISS %: 51.9634  AVERAGE MISS PENALTY: 188.636
LLC4 WRITEBACK ACCESS:  8664  HIT:  7514  MISS:  1150  HIT %: 86.7267  MISS %: 13.2733  AVERAGE MISS PENALTY: 0

LLC5 TOTAL     ACCESS: 122796  HIT: 71402  MISS: 51394  HIT %: 58.1468  MISS %: 41.8532  AVERAGE MISS PENALTY: 183.271
LLC5 LOAD      ACCESS: 44598  HIT: 31546  MISS: 13052  HIT %: 70.7341  MISS %: 29.2659  AVERAGE MISS PENALTY: 185.749
LLC5 RFO       ACCESS:  1400  HIT:   537  MISS:   863  HIT %: 38.3571  MISS %: 61.6429  AVERAGE MISS PENALTY: 184.645
LLC5 PREFETCH  ACCESS: 68265  HIT: 32027  MISS: 36238  HIT %: 46.9157  MISS %: 53.0843  AVERAGE MISS PENALTY: 188.622
LLC5 WRITEBACK ACCESS:  8533  HIT:  7292  MISS:  1241  HIT %: 85.4565  MISS %: 14.5435  AVERAGE MISS PENALTY: 0

LLC6 TOTAL     ACCESS: 117854  HIT: 66684  MISS: 51170  HIT %: 56.5819  MISS %: 43.4181  AVERAGE MISS PENALTY: 185.559
LLC6 LOAD      ACCESS: 40731  HIT: 27795  MISS: 12936  HIT %: 68.2404  MISS %: 31.7596  AVERAGE MISS PENALTY: 187.931
LLC6 RFO       ACCESS:  1256  HIT:   401  MISS:   855  HIT %: 31.9268  MISS %: 68.0732  AVERAGE MISS PENALTY: 187.185
LLC6 PREFETCH  ACCESS: 67871  HIT: 31678  MISS: 36193  HIT %: 46.6738  MISS %: 53.3262  AVERAGE MISS PENALTY: 190.754
LLC6 WRITEBACK ACCESS:  7996  HIT:  6810  MISS:  1186  HIT %: 85.1676  MISS %: 14.8324  AVERAGE MISS PENALTY: 0

LLC7 TOTAL     ACCESS: 121539  HIT: 70412  MISS: 51127  HIT %: 57.9337  MISS %: 42.0663  AVERAGE MISS PENALTY: 184.36
LLC7 LOAD      ACCESS: 45021  HIT: 31999  MISS: 13022  HIT %: 71.0757  MISS %: 28.9243  AVERAGE MISS PENALTY: 185.968
LLC7 RFO       ACCESS:  1565  HIT:   624  MISS:   941  HIT %: 39.8722  MISS %: 60.1278  AVERAGE MISS PENALTY: 185.068
LLC7 PREFETCH  ACCESS: 66223  HIT: 30299  MISS: 35924  HIT %: 45.753  MISS %: 54.247  AVERAGE MISS PENALTY: 190.122
LLC7 WRITEBACK ACCESS:  8730  HIT:  7490  MISS:  1240  HIT %: 85.7961  MISS %: 14.2039  AVERAGE MISS PENALTY: 0

Total Rob stall cycles : 	310742389
Total Load Rob Stall cycles : 	65222883
Average Rob Stall cycles : 	 7
Average Load Rob Stall cycles : 	 10

CPU 1 cumulative IPC: 0.552917 instructions: 200430734 cycles: 362496830
ITLB TOTAL     ACCESS: 31197395  HIT: 31154284  MISS: 43111  HIT %: 99.8618  MISS %: 0.138188  AVERAGE MISS PENALTY: 10.8735
ITLB LOAD      ACCESS: 31197395  HIT: 31154284  MISS: 43111  HIT %: 99.8618  MISS %: 0.138188  AVERAGE MISS PENALTY: 10.8735
ITLB RFO       ACCESS:     0  HIT:     0  MISS:     0  HIT %:     0  MISS %:     0  AVERAGE MISS PENALTY: 0
ITLB PREFETCH  ACCESS:     0  HIT:     0  MISS:     0  HIT %:     0  MISS %:     0  AVERAGE MISS PENALTY: 0
ITLB WRITEBACK ACCESS:     0  HIT:     0  MISS:     0  HIT %:     0  MISS %:     0  AVERAGE MISS PENALTY: 0

DTLB TOTAL     ACCESS: 52294681  HIT: 51847036  MISS: 447645  HIT %: 99.144  MISS %: 0.856005  AVERAGE MISS PENALTY: 13.2073
DTLB LOAD      ACCESS: 30776690  HIT: 30367237  MISS: 409453  HIT %: 98.6696  MISS %: 1.3304  AVERAGE MISS PENALTY: 13.1125
DTLB RFO       ACCESS: 21517991  HIT: 21479799  MISS: 38192  HIT %: 99.8225  MISS %: 0.177489  AVERAGE MISS PENALTY: 14.2234
DTLB PREFETCH  ACCESS:     0  HIT:     0  MISS:     0  HIT %:     0  MISS %:     0  AVERAGE MISS PENALTY: 0
DTLB WRITEBACK ACCESS:     0  HIT:     0  MISS:     0  HIT %:     0  MISS %:     0  AVERAGE MISS PENALTY: 0

STLB TOTAL     ACCESS: 490756  HIT: 472407  MISS: 18349  HIT %: 96.2611  MISS %: 3.73893  AVERAGE MISS PENALTY: 100
STLB LOAD      ACCESS: 452564  HIT: 436138  MISS: 16426  HIT %: 96.3705  MISS %: 3.62954  AVERAGE MISS PENALTY: 100
STLB RFO       ACCESS: 38192  HIT: 36269  MISS:  1923  HIT %: 94.9649  MISS %: 5.03509  AVERAGE MISS PENALTY: 100
STLB PREFETCH  ACCESS:     0  HIT:     0  MISS:     0  HIT %:     0  MISS %:     0  AVERAGE MISS PENALTY: 0
STLB WRITEBACK ACCESS:     0  HIT:     0  MISS:     0  HIT %:     0  MISS %:     0  AVERAGE MISS PENALTY: 0

L1D TOTAL     ACCESS: 84618897  HIT: 83585454  MISS: 1033443  HIT %: 98.7787  MISS %: 1.22129  AVERAGE MISS PENALTY: 2.57091e+06
L1D LOAD      ACCESS: 34001012  HIT: 33651115  MISS: 349897  HIT %: 98.9709  MISS %: 1.02908  AVERAGE MISS PENALTY: 7.412e+06
L1D RFO       ACCESS: 40194195  HIT: 40160300  MISS: 33895  HIT %: 99.9157  MISS %: 0.0843281  AVERAGE MISS PENALTY: 1.87034e+06
L1D PREFETCH  ACCESS: 10423690  HIT: 9774039  MISS: 649651  HIT %: 93.7676  MISS %: 6.23245  AVERAGE MISS PENALTY: 81.2974
L1D WRITEBACK ACCESS:     0  HIT:     0  MISS:     0  HIT %:     0  MISS %:     0  AVERAGE MISS PENALTY: 0

L1I TOTAL     ACCESS: 43037458  HIT: 42399876  MISS: 637582  HIT %: 98.5185  MISS %: 1.48146  AVERAGE MISS PENALTY: 26.7554
L1I LOAD      ACCESS: 43037458  HIT: 42399876  MISS: 637582  HIT %: 98.5185  MISS %: 1.48146  AVERAGE MISS PENALTY: 26.7554
L1I RFO       ACCESS:     0  HIT:     0  MISS:     0  HIT %:     0  MISS %:     0  AVERAGE MISS PENALTY: 0
L1I PREFETCH  ACCESS:     0  HIT:     0  MISS:     0  HIT %:     0  MISS %:     0  AVERAGE MISS PENALTY: 0
L1I WRITEBACK ACCESS:     0  HIT:     0  MISS:     0  HIT %:     0  MISS %:     0  AVERAGE MISS PENALTY: 0

L2C TOTAL     ACCESS: 2626572  HIT: 1815792  MISS: 810780  HIT %: 69.1316  MISS %: 30.8684  AVERAGE MISS PENALTY: 4.34777e+06
L2C LOAD      ACCESS: 986167  HIT: 687259  MISS: 298908  HIT %: 69.6899  MISS %: 30.3101  AVERAGE MISS PENALTY: 1.1767e+07
L2C RFO       ACCESS: 33712  HIT: 21532  MISS: 12180  HIT %: 63.8704  MISS %: 36.1296  AVERAGE MISS PENALTY: 637486
L2C PREFETCH  ACCESS: 1455550  HIT: 961004  MISS: 494546  HIT %: 66.0234  MISS %: 33.9766  AVERAGE MISS PENALTY: 145.994
L2C WRITEBACK ACCESS: 151143  HIT: 145997  MISS:  5146  HIT %: 96.5953  MISS %: 3.40472  AVERAGE MISS PENALTY: 0


LLC0 TOTAL     ACCESS: 102792  HIT: 53684  MISS: 49108  HIT %: 52.2259  MISS %: 47.7741  AVERAGE MISS PENALTY: 182.668
LLC0 LOAD      ACCESS: 35836  HIT: 21966  MISS: 13870  HIT %: 61.2959  MISS %: 38.7041  AVERAGE MISS PENALTY: 185.264
LLC0 RFO       ACCESS:  1574  HIT:   613  MISS:   961  HIT %: 38.9454  MISS %: 61.0546  AVERAGE MISS PENALTY: 187.165
LLC0 PREFETCH  ACCESS: 57831  HIT: 24682  MISS: 33149  HIT %: 42.6795  MISS %: 57.3205  AVERAGE MISS PENALTY: 187.666
LLC0 WRITEBACK ACCESS:  7551  HIT:  6423  MISS:  1128  HIT %: 85.0616  MISS %: 14.9384  AVERAGE MISS PENALTY: 0

LLC1 TOTAL     ACCESS: 107171  HIT: 56349  MISS: 50822  HIT %: 52.5786  MISS %: 47.4214  AVERAGE MISS PENALTY: 183.185
LLC1 LOAD      ACCESS: 34852  HIT: 21387  MISS: 13465  HIT %: 61.3652  MISS %: 38.6348  AVERAGE MISS PENALTY: 186.832
LLC1 RFO       ACCESS:  1601  HIT:   644  MISS:   957  HIT %: 40.2249  MISS %: 59.7751  AVERAGE MISS PENALTY: 185.454
LLC1 PREFETCH  ACCESS: 63025  HIT: 27734  MISS: 35291  HIT %: 44.0048  MISS %: 55.9952  AVERAGE MISS PENALTY: 187.488
LLC1 WRITEBACK ACCESS:  7693  HIT:  6584  MISS:  1109  HIT %: 85.5843  MISS %: 14.4157  AVERAGE MISS PENALTY: 0

LLC2 TOTAL     ACCESS: 110189  HIT: 58838  MISS: 51351  HIT %: 53.3973  MISS %: 46.6027  AVERAGE MISS PENALTY: 185.897
LLC2 LOAD      ACCESS: 36872  HIT: 23626  MISS: 13246  HIT %: 64.0757  MISS %: 35.9243  AVERAGE MISS PENALTY: 187.722
LLC2 RFO       ACCESS:  1543  HIT:   585  MISS:   958  HIT %: 37.9132  MISS %: 62.0868  AVERAGE MISS PENALTY: 183.668
LLC2 PREFETCH  ACCESS: 63791  HIT: 27711  MISS: 36080  HIT %: 43.4403  MISS %: 56.5597  AVERAGE MISS PENALTY: 190.784
LLC2 WRITEBACK ACCESS:  7983  HIT:  6916  MISS:  1067  HIT %: 86.6341  MISS %: 13.3659  AVERAGE MISS PENALTY: 0

LLC3 TOTAL     ACCESS: 109689  HIT: 58209  MISS: 51480  HIT %: 53.0673  MISS %: 46.9327  AVERAGE MISS PENALTY: 186.096
[...]
 USEFUL LOAD PREFETCHES:      10447 PREFETCH ISSUED TO LOWER LEVEL:     282277  ACCURACY: 3.70097
 TIMELY PREFETCHES:      10447 LATE PREFETCHES: 0 DROPPED PREFETCHES: 0
LLC1 AVERAGE MISS LATENCY: 181.764 cycles
LLC2 TOTAL     ACCESS: 103317  HIT: 52097  MISS: 51220  HIT %: 50.4244  MISS %: 49.5756  AVERAGE MISS PENALTY: 183.458
LLC2 LOAD      ACCESS: 32533  HIT: 19444  MISS: 13089  HIT %: 59.767  MISS %: 40.233  AVERAGE MISS PENALTY: 184.786
LLC2 RFO       ACCESS:  1505  HIT:   568  MISS:   937  HIT %: 37.7409  MISS %: 62.2591  AVERAGE MISS PENALTY: 180.483
LLC2 PREFETCH  ACCESS: 61627  HIT: 25556  MISS: 36071  HIT %: 41.4688  MISS %: 58.5312  AVERAGE MISS PENALTY: 188.766
LLC2 WRITEBACK ACCESS:  7652  HIT:  6529  MISS:  1123  HIT %: 85.3241  MISS %: 14.6759  AVERAGE MISS PENALTY: 0
LLC2 PREFETCH  REQUESTED:     0  ISSUED:     0  USEFUL: 10137  USELESS: 277814
 USEFUL LOAD PREFETCHES:      10137 PREFETCH ISSUED TO LOWER LEVEL:     288831  ACCURACY: 3.50966
 TIMELY PREFETCHES:      10137 LATE PREFETCHES: 0 DROPPED PREFETCHES: 0
LLC2 AVERAGE MISS LATENCY: 183.458 cycles
LLC3 TOTAL     ACCESS: 104951  HIT: 53394  MISS: 51557  HIT %: 50.8752  MISS %: 49.1248  AVERAGE MISS PENALTY: 183.978
LLC3 LOAD      ACCESS: 34874  HIT: 21524  MISS: 13350  HIT %: 61.7193  MISS %: 38.2807  AVERAGE MISS PENALTY: 184.63
LLC3 RFO       ACCESS:  1456  HIT:   510  MISS:   946  HIT %: 35.0275  MISS %: 64.9725  AVERAGE MISS PENALTY: 181.462
LLC3 PREFETCH  ACCESS: 60759  HIT: 24588  MISS: 36171  HIT %: 40.4681  MISS %: 59.5319  AVERAGE MISS PENALTY: 189.347
LLC3 WRITEBACK ACCESS:  7862  HIT:  6772  MISS:  1090  HIT %: 86.1358  MISS %: 13.8642  AVERAGE MISS PENALTY: 0
LLC3 PREFETCH  REQUESTED:     0  ISSUED:     0  USEFUL:  9928  USELESS: 277815
 USEFUL LOAD PREFETCHES:       9928 PREFETCH ISSUED TO LOWER LEVEL:     288561  ACCURACY: 3.44052
 TIMELY PREFETCHES:       9928 LATE PREFETCHES: 0 DROPPED PREFETCHES: 0
LLC3 AVERAGE MISS LATENCY: 183.978 cycles
LLC4 TOTAL     ACCESS: 105108  HIT: 53816  MISS: 51292  HIT %: 51.2007  MISS %: 48.7993  AVERAGE MISS PENALTY: 182.446
LLC4 LOAD      ACCESS: 32581  HIT: 19649  MISS: 12932  HIT %: 60.3082  MISS %: 39.6918  AVERAGE MISS PENALTY: 184.665
LLC4 RFO       ACCESS:  1431  HIT:   464  MISS:   967  HIT %: 32.4249  MISS %: 67.5751  AVERAGE MISS PENALTY: 187.198
LLC4 PREFETCH  ACCESS: 63228  HIT: 26954  MISS: 36274  HIT %: 42.6298  MISS %: 57.3702  AVERAGE MISS PENALTY: 187.156
LLC4 WRITEBACK ACCESS:  7868  HIT:  6749  MISS:  1119  HIT %: 85.7778  MISS %: 14.2222  AVERAGE MISS PENALTY: 0
LLC4 PREFETCH  REQUESTED:     0  ISSUED:     0  USEFUL:  9982  USELESS: 280287
 USEFUL LOAD PREFETCHES:       9982 PREFETCH ISSUED TO LOWER LEVEL:     290930  ACCURACY: 3.43107
 TIMELY PREFETCHES:       9982 LATE PREFETCHES: 0 DROPPED PREFETCHES: 0
LLC4 AVERAGE MISS LATENCY: 182.446 cycles
LLC5 TOTAL     ACCESS: 102804  HIT: 51576  MISS: 51228  HIT %: 50.1693  MISS %: 49.8307  AVERAGE MISS PENALTY: 181.859
LLC5 LOAD      ACCESS: 31891  HIT: 18892  MISS: 12999  HIT %: 59.2393  MISS %: 40.7607  AVERAGE MISS PENALTY: 185.409
LLC5 RFO       ACCESS:  1274  HIT:   407  MISS:   867  HIT %: 31.9466  MISS %: 68.0534  AVERAGE MISS PENALTY: 182.562
LLC5 PREFETCH  ACCESS: 61770  HIT: 25567  MISS: 36203  HIT %: 41.3906  MISS %: 58.6094  AVERAGE MISS PENALTY: 186.39
LLC5 WRITEBACK ACCESS:  7869  HIT:  6710  MISS:  1159  HIT %: 85.2713  MISS %: 14.7287  AVERAGE MISS PENALTY: 0
LLC5 PREFETCH  REQUESTED:     0  ISSUED:     0  USEFUL: 10070  USELESS: 279275
 USEFUL LOAD PREFETCHES:      10070 PREFETCH ISSUED TO LOWER LEVEL:     290064  ACCURACY: 3.47165
 TIMELY PREFETCHES:      10070 LATE PREFETCHES: 0 DROPPED PREFETCHES: 0
LLC5 AVERAGE MISS LATENCY: 181.859 cycles
LLC6 TOTAL     ACCESS: 98092  HIT: 47257  MISS: 50835  HIT %: 48.1762  MISS %: 51.8238  AVERAGE MISS PENALTY: 184.176
LLC6 LOAD      ACCESS: 29594  HIT: 16801  MISS: 12793  HIT %: 56.7716  MISS %: 43.2284  AVERAGE MISS PENALTY: 186.184
LLC6 RFO       ACCESS:  1260  HIT:   399  MISS:   861  HIT %: 31.6667  MISS %: 68.3333  AVERAGE MISS PENALTY: 181.846
LLC6 PREFETCH  ACCESS: 59462  HIT: 23430  MISS: 36032  HIT %: 39.4033  MISS %: 60.5967  AVERAGE MISS PENALTY: 189.391
LLC6 WRITEBACK ACCESS:  7776  HIT:  6627  MISS:  1149  HIT %: 85.2238  MISS %: 14.7762  AVERAGE MISS PENALTY: 0
LLC6 PREFETCH  REQUESTED:     0  ISSUED:     0  USEFUL:  9897  USELESS: 278453
 USEFUL LOAD PREFETCHES:       9897 PREFETCH ISSUED TO LOWER LEVEL:     289071  ACCURACY: 3.42373
 TIMELY PREFETCHES:       9897 LATE PREFETCHES: 0 DROPPED PREFETCHES: 0
LLC6 AVERAGE MISS LATENCY: 184.176 cycles
LLC7 TOTAL     ACCESS: 100007  HIT: 49130  MISS: 50877  HIT %: 49.1266  MISS %: 50.8734  AVERAGE MISS PENALTY: 184.12
LLC7 LOAD      ACCESS: 31633  HIT: 18697  MISS: 12936  HIT %: 59.106  MISS %: 40.894  AVERAGE MISS PENALTY: 185.419
LLC7 RFO       ACCESS:  1611  HIT:   674  MISS:   937  HIT %: 41.8374  MISS %: 58.1626  AVERAGE MISS PENALTY: 187.26
LLC7 PREFETCH  ACCESS: 58718  HIT: 22783  MISS: 35935  HIT %: 38.8007  MISS %: 61.1993  AVERAGE MISS PENALTY: 189.047
LLC7 WRITEBACK ACCESS:  8045  HIT:  6976  MISS:  1069  HIT %: 86.7122  MISS %: 13.2878  AVERAGE MISS PENALTY: 0
LLC7 PREFETCH  REQUESTED:     0  ISSUED:     0  USEFUL: 10227  USELESS: 276067
 USEFUL LOAD PREFETCHES:      10227 PREFETCH ISSUED TO LOWER LEVEL:     287233  ACCURACY: 3.56052
 TIMELY PREFETCHES:      10227 LATE PREFETCHES: 0 DROPPED PREFETCHES: 0
LLC7 AVERAGE MISS LATENCY: 184.12 cycles
ROI Average ROB Stall Cycles:	7.20231
ROI Total ROB Stalls Cycles:	309740374
ROI TOTAL ROB counter      :	43005677
ROI Average Load ROB Stall Cycles:	10.1182
ROI Total Load ROB Stalls Cycle  :	65063442
ROI Total Load ROB stalls Counter:	6430317
Major fault: 0 Minor fault: 5898

CPU 7 cumulative IPC: 0.551729 instructions: 200000000 cycles: 362496830
ITLB TOTAL     ACCESS: 31133947  HIT: 31090788  MISS: 43159  HIT %: 99.8614  MISS %: 0.138624  AVERAGE MISS PENALTY: 10.8715
ITLB LOAD      ACCESS: 31133947  HIT: 31090788  MISS: 43159  HIT %: 99.8614  MISS %: 0.138624  AVERAGE MISS PENALTY: 10.8715
ITLB RFO       ACCESS:     0  HIT:     0  MISS:     0  HIT %:     0  MISS %:     0  AVERAGE MISS PENALTY: 0
ITLB PREFETCH  ACCESS:     0  HIT:     0  MISS:     0  HIT %:     0  MISS %:     0  AVERAGE MISS PENALTY: 0
ITLB WRITEBACK ACCESS:     0  HIT:     0  MISS:     0  HIT %:     0  MISS %:     0  AVERAGE MISS PENALTY: 0
ITLB PREFETCH  REQUESTED:     0  ISSUED:     0  USEFUL:     0  USELESS:     0
 USEFUL LOAD PREFETCHES:          0 PREFETCH ISSUED TO LOWER LEVEL:          0  ACCURACY: -nan
 TIMELY PREFETCHES:          0 LATE PREFETCHES: 0 DROPPED PREFETCHES: 0
ITLB AVERAGE MISS LATENCY: 10.8715 cycles
DTLB TOTAL     ACCESS: 52204371  HIT: 51758325  MISS: 446046  HIT %: 99.1456  MISS %: 0.854423  AVERAGE MISS PENALTY: 13.2227
DTLB LOAD      ACCESS: 30725002  HIT: 30317225  MISS: 407777  HIT %: 98.6728  MISS %: 1.32718  AVERAGE MISS PENALTY: 13.1275
DTLB RFO       ACCESS: 21479369  HIT: 21441100  MISS: 38269  HIT %: 99.8218  MISS %: 0.178166  AVERAGE MISS PENALTY: 14.2367
DTLB PREFETCH  ACCESS:     0  HIT:     0  MISS:     0  HIT %:     0  MISS %:     0  AVERAGE MISS PENALTY: 0
DTLB WRITEBACK ACCESS:     0  HIT:     0  MISS:     0  HIT %:     0  MISS %:     0  AVERAGE MISS PENALTY: 0
DTLB PREFETCH  REQUESTED:     0  ISSUED:     0  USEFUL:     0  USELESS:     0
 USEFUL LOAD PREFETCHES:          0 PREFETCH ISSUED TO LOWER LEVEL:          0  ACCURACY: -nan
 TIMELY PREFETCHES:          0 LATE PREFETCHES: 0 DROPPED PREFETCHES: 0
DTLB AVERAGE MISS LATENCY: 13.2227 cycles
STLB TOTAL     ACCESS: 489205  HIT: 470857  MISS: 18348  HIT %: 96.2494  MISS %: 3.75057  AVERAGE MISS PENALTY: 100
STLB LOAD      ACCESS: 450936  HIT: 434519  MISS: 16417  HIT %: 96.3594  MISS %: 3.64065  AVERAGE MISS PENALTY: 100
STLB RFO       ACCESS: 38269  HIT: 36338  MISS:  1931  HIT %: 94.9541  MISS %: 5.04586  AVERAGE MISS PENALTY: 100
STLB PREFETCH  ACCESS:     0  HIT:     0  MISS:     0  HIT %:     0  MISS %:     0  AVERAGE MISS PENALTY: 0
STLB WRITEBACK ACCESS:     0  HIT:     0  MISS:     0  HIT %:     0  MISS %:     0  AVERAGE MISS PENALTY: 0
STLB PREFETCH  REQUESTED:     0  ISSUED:     0  USEFUL:     0  USELESS:     0
 USEFUL LOAD PREFETCHES:          0 PREFETCH ISSUED TO LOWER LEVEL:          0  ACCURACY: -nan
 TIMELY PREFETCHES:          0 LATE PREFETCHES: 0 DROPPED PREFETCHES: 0
STLB AVERAGE MISS LATENCY: 100 cycles
L1D TOTAL     ACCESS: 84453271  HIT: 83419729  MISS: 1033542  HIT %: 98.7762  MISS %: 1.2238  AVERAGE MISS PENALTY: 2.54252e+06
L1D LOAD      ACCESS: 33939314  HIT: 33589503  MISS: 349811  HIT %: 98.9693  MISS %: 1.0307  AVERAGE MISS PENALTY: 7.31241e+06
L1D RFO       ACCESS: 40098428  HIT: 40064485  MISS: 33943  HIT %: 99.9154  MISS %: 0.0846492  AVERAGE MISS PENALTY: 2.0561e+06
L1D PREFETCH  ACCESS: 10415529  HIT: 9765741  MISS: 649788  HIT %: 93.7614  MISS %: 6.23865  AVERAGE MISS PENALTY: 83.4001
L1D WRITEBACK ACCESS:     0  HIT:     0  MISS:     0  HIT %:     0  MISS %:     0  AVERAGE MISS PENALTY: 0
L1D PREFETCH  REQUESTED: 10652209  ISSUED: 10571929  USEFUL: 159798  USELESS: 489958
 USEFUL LOAD PREFETCHES:     159798 PREFETCH ISSUED TO LOWER LEVEL:     731856  ACCURACY: 21.8346
 TIMELY PREFETCHES:     159798 LATE PREFETCHES: 39544 DROPPED PREFETCHES: 80280
L1D AVERAGE MISS LATENCY: 67604.8 cycles
L1I TOTAL     ACCESS: 42936496  HIT: 42298620  MISS: 637876  HIT %: 98.5144  MISS %: 1.48563  AVERAGE MISS PENALTY: 31.5716
L1I LOAD      ACCESS: 42936496  HIT: 42298620  MISS: 637876  HIT %: 98.5144  MISS %: 1.48563  AVERAGE MISS PENALTY: 31.5716
L1I RFO       ACCESS:     0  HIT:     0  MISS:     0  HIT %:     0  MISS %:     0  AVERAGE MISS PENALTY: 0
L1I PREFETCH  ACCESS:     0  HIT:     0  MISS:     0  HIT %:     0  MISS %:     0  AVERAGE MISS PENALTY: 0
L1I WRITEBACK ACCESS:     0  HIT:     0  MISS:     0  HIT %:     0  MISS %:     0  AVERAGE MISS PENALTY: 0
L1I PREFETCH  REQUESTED:     0  ISSUED:     0  USEFUL:     0  USELESS:     0
 USEFUL LOAD PREFETCHES:          0 PREFETCH ISSUED TO LOWER LEVEL:          0  ACCURACY: -nan
 TIMELY PREFETCHES:          0 LATE PREFETCHES: 0 DROPPED PREFETCHES: 0
L1I AVERAGE MISS LATENCY: 31.5716 cycles
L2C TOTAL     ACCESS: 2597593  HIT: 1555054  MISS: 1042539  HIT %: 59.8652  MISS %: 40.1348  AVERAGE MISS PENALTY: 3.95903e+06
L2C LOAD      ACCESS: 986496  HIT: 577846  MISS: 408650  HIT %: 58.5756  MISS %: 41.4244  AVERAGE MISS PENALTY: 1.00768e+07
L2C RFO       ACCESS: 33745  HIT: 19788  MISS: 13957  HIT %: 58.6398  MISS %: 41.3602  AVERAGE MISS PENALTY: 680102
L2C PREFETCH  ACCESS: 1426142  HIT: 827264  MISS: 598878  HIT %: 58.0071  MISS %: 41.9929  AVERAGE MISS PENALTY: 126.268
L2C WRITEBACK ACCESS: 151210  HIT: 130156  MISS: 21054  HIT %: 86.0763  MISS %: 13.9237  AVERAGE MISS PENALTY: 0
L2C PREFETCH  REQUESTED: 1086913  ISSUED: 1063896  USEFUL: 67304  USELESS: 531033
 USEFUL LOAD PREFETCHES:      67304 PREFETCH ISSUED TO LOWER LEVEL:     710796  ACCURACY: 9.46882
 TIMELY PREFETCHES:      67304 LATE PREFETCHES: 104615 DROPPED PREFETCHES: 23017
L2C AVERAGE MISS LATENCY: 108.459 cycles
LLC0 TOTAL     ACCESS: 131620  HIT: 82720  MISS: 48900  HIT %: 62.8476  MISS %: 37.1524  AVERAGE MISS PENALTY: 180.945
LLC0 LOAD      ACCESS: 50626  HIT: 36795  MISS: 13831  HIT %: 72.68  MISS %: 27.32  AVERAGE MISS PENALTY: 181.599
LLC0 RFO       ACCESS:  1864  HIT:   929  MISS:   935  HIT %: 49.8391  MISS %: 50.1609  AVERAGE MISS PENALTY: 184.277
LLC0 PREFETCH  ACCESS: 69684  HIT: 36571  MISS: 33113  HIT %: 52.4812  MISS %: 47.5188  AVERAGE MISS PENALTY: 186.157
LLC0 WRITEBACK ACCESS:  9446  HIT:  8425  MISS:  1021  HIT %: 89.1912  MISS %: 10.8088  AVERAGE MISS PENALTY: 0
LLC0 PREFETCH  REQUESTED:     0  ISSUED:     0  USEFUL:  9442  USELESS: 255666
 USEFUL LOAD PREFETCHES:       9442 PREFETCH ISSUED TO LOWER LEVEL:     265202  ACCURACY: 3.5603
 TIMELY PREFETCHES:       9442 LATE PREFETCHES: 0 DROPPED PREFETCHES: 0
LLC0 AVERAGE MISS LATENCY: 180.945 cycles
Deadblocks : 100016 Deadblock percentage : 723.129

LLC1 TOTAL     ACCESS: 133238  HIT: 82627  MISS: 50611  HIT %: 62.0146  MISS %: 37.9854  AVERAGE MISS PENALTY: 181.839
LLC1 LOAD      ACCESS: 47487  HIT: 34188  MISS: 13299  HIT %: 71.9944  MISS %: 28.0056  AVERAGE MISS PENALTY: 183.543
LLC1 RFO       ACCESS:  1700  HIT:   743  MISS:   957  HIT %: 43.7059  MISS %: 56.2941  AVERAGE MISS PENALTY: 179.521
LLC1 PREFETCH  ACCESS: 75005  HIT: 39697  MISS: 35308  HIT %: 52.9258  MISS %: 47.0742  AVERAGE MISS PENALTY: 186.652
LLC1 WRITEBACK ACCESS:  9046  HIT:  7999  MISS:  1047  HIT %: 88.4258  MISS %: 11.5742  AVERAGE MISS PENALTY: 0
LLC1 PREFETCH  REQUESTED:     0  ISSUED:     0  USEFUL: 10447  USELESS: 271321
 USEFUL LOAD PREFETCHES:      10447 PREFETCH ISSUED TO LOWER LEVEL:     282277  ACCURACY: 3.70097
 TIMELY PREFETCHES:      10447 LATE PREFETCHES: 0 DROPPED PREFETCHES: 0
LLC1 AVERAGE MISS LATENCY: 181.839 cycles
LLC2 TOTAL     ACCESS: 139933  HIT: 88848  MISS: 51085  HIT %: 63.4932  MISS %: 36.5068  AVERAGE MISS PENALTY: 183.472
LLC2 LOAD      ACCESS: 50103  HIT: 36952  MISS: 13151  HIT %: 73.7521  MISS %: 26.2479  AVERAGE MISS PENALTY: 183.887
LLC2 RFO       ACCESS:  1815  HIT:   881  MISS:   934  HIT %: 48.5399  MISS %: 51.4601  AVERAGE MISS PENALTY: 179.56
LLC2 PREFETCH  ACCESS: 78165  HIT: 42169  MISS: 35996  HIT %: 53.9487  MISS %: 46.0513  AVERAGE MISS PENALTY: 188.539
LLC2 WRITEBACK ACCESS:  9850  HIT:  8846  MISS:  1004  HIT %: 89.8071  MISS %: 10.1929  AVERAGE MISS PENALTY: 0
LLC2 PREFETCH  REQUESTED:     0  ISSUED:     0  USEFUL: 10137  USELESS: 277814
 USEFUL LOAD PREFETCHES:      10137 PREFETCH ISSUED TO LOWER LEVEL:     288831  ACCURACY: 3.50966
 TIMELY PREFETCHES:      10137 LATE PREFETCHES: 0 DROPPED PREFETCHES: 0
LLC2 AVERAGE MISS LATENCY: 183.472 cycles
LLC3 TOTAL     ACCESS: 142704  HIT: 91173  MISS: 51531  HIT %: 63.8896  MISS %: 36.1104  AVERAGE MISS PENALTY: 183.693
LLC3 LOAD      ACCESS: 55508  HIT: 42164  MISS: 13344  HIT %: 75.9602  MISS %: 24.0398  AVERAGE MISS PENALTY: 184.104
LLC3 RFO       ACCESS:  1833  HIT:   871  MISS:   962  HIT %: 47.5177  MISS %: 52.4823  AVERAGE MISS PENALTY: 180.065
LLC3 PREFETCH  ACCESS: 75114  HIT: 38977  MISS: 36137  HIT %: 51.8905  MISS %: 48.1095  AVERAGE MISS PENALTY: 189.168
LLC3 WRITEBACK ACCESS: 10249  HIT:  9161  MISS:  1088  HIT %: 89.3843  MISS %: 10.6157  AVERAGE MISS PENALTY: 0
LLC3 PREFETCH  REQUESTED:     0  ISSUED:     0  USEFUL:  9928  USELESS: 277815
 USEFUL LOAD PREFETCHES:       9928 PREFETCH ISSUED TO LOWER LEVEL:     288561  ACCURACY: 3.44052
 TIMELY PREFETCHES:       9928 LATE PREFETCHES: 0 DROPPED PREFETCHES: 0
LLC3 AVERAGE MISS LATENCY: 183.693 cycles
LLC4 TOTAL     ACCESS: 145501  HIT: 94210  MISS: 51291  HIT %: 64.7487  MISS %: 35.2513  AVERAGE MISS PENALTY: 181.911
LLC4 LOAD      ACCESS: 52961  HIT: 39968  MISS: 12993  HIT %: 75.4669  MISS %: 24.5331  AVERAGE MISS PENALTY: 183.591
LLC4 RFO       ACCESS:  1748  HIT:   803  MISS:   945  HIT %: 45.9382  MISS %: 54.0618  AVERAGE MISS PENALTY: 182.59
LLC4 PREFETCH  ACCESS: 80627  HIT: 44309  MISS: 36318  HIT %: 54.9555  MISS %: 45.0445  AVERAGE MISS PENALTY: 186.476
LLC4 WRITEBACK ACCESS: 10165  HIT:  9130  MISS:  1035  HIT %: 89.818  MISS %: 10.182  AVERAGE MISS PENALTY: 0
LLC4 PREFETCH  REQUESTED:     0  ISSUED:     0  USEFUL:  9982  USELESS: 280287
 USEFUL LOAD PREFETCHES:       9982 PREFETCH ISSUED TO LOWER LEVEL:     290930  ACCURACY: 3.43107
 TIMELY PREFETCHES:       9982 LATE PREFETCHES: 0 DROPPED PREFETCHES: 0
LLC4 AVERAGE MISS LATENCY: 181.911 cycles
LLC5 TOTAL     ACCESS: 140020  HIT: 88961  MISS: 51059  HIT %: 63.5345  MISS %: 36.4655  AVERAGE MISS PENALTY: 182.11
LLC5 LOAD      ACCESS: 50613  HIT: 37645  MISS: 12968  HIT %: 74.3781  MISS %: 25.6219  AVERAGE MISS PENALTY: 183.408
LLC5 RFO       ACCESS:  1498  HIT:   645  MISS:   853  HIT %: 43.0574  MISS %: 56.9426  AVERAGE MISS PENALTY: 183.106
LLC5 PREFETCH  ACCESS: 77909  HIT: 41760  MISS: 36149  HIT %: 53.601  MISS %: 46.399  AVERAGE MISS PENALTY: 187.107
LLC5 WRITEBACK ACCESS: 10000  HIT:  8911  MISS:  1089  HIT %: 89.11  MISS %: 10.89  AVERAGE MISS PENALTY: 0
LLC5 PREFETCH  REQUESTED:     0  ISSUED:     0  USEFUL: 10070  USELESS: 279275
 USEFUL LOAD PREFETCHES:      10070 PREFETCH ISSUED TO LOWER LEVEL:     290064  ACCURACY: 3.47165
 TIMELY PREFETCHES:      10070 LATE PREFETCHES: 0 DROPPED PREFETCHES: 0
LLC5 AVERAGE MISS LATENCY: 182.11 cycles
LLC6 TOTAL     ACCESS: 134072  HIT: 82986  MISS: 51086  HIT %: 61.8966  MISS %: 38.1034  AVERAGE MISS PENALTY: 183.781
LLC6 LOAD      ACCESS: 46184  HIT: 33209  MISS: 12975  HIT %: 71.9059  MISS %: 28.0941  AVERAGE MISS PENALTY: 185.106
LLC6 RFO       ACCESS:  1468  HIT:   600  MISS:   868  HIT %: 40.8719  MISS %: 59.1281  AVERAGE MISS PENALTY: 181.132
LLC6 PREFETCH  ACCESS: 76294  HIT: 40122  MISS: 36172  HIT %: 52.5887  MISS %: 47.4113  AVERAGE MISS PENALTY: 188.811
LLC6 WRITEBACK ACCESS: 10126  HIT:  9055  MISS:  1071  HIT %: 89.4233  MISS %: 10.5767  AVERAGE MISS PENALTY: 0
LLC6 PREFETCH  REQUESTED:     0  ISSUED:     0  USEFUL:  9897  USELESS: 278453
 USEFUL LOAD PREFETCHES:       9897 PREFETCH ISSUED TO LOWER LEVEL:     289071  ACCURACY: 3.42373
 TIMELY PREFETCHES:       9897 LATE PREFETCHES: 0 DROPPED PREFETCHES: 0
LLC6 AVERAGE MISS LATENCY: 183.781 cycles
LLC7 TOTAL     ACCESS: 133356  HIT: 82423  MISS: 50933  HIT %: 61.8067  MISS %: 38.1933  AVERAGE MISS PENALTY: 183.455
LLC7 LOAD      ACCESS: 48906  HIT: 35923  MISS: 12983  HIT %: 73.4532  MISS %: 26.5468  AVERAGE MISS PENALTY: 184.521
LLC7 RFO       ACCESS:  2008  HIT:  1069  MISS:   939  HIT %: 53.2371  MISS %: 46.7629  AVERAGE MISS PENALTY: 181.93
LLC7 PREFETCH  ACCESS: 72357  HIT: 36466  MISS: 35891  HIT %: 50.3973  MISS %: 49.6027  AVERAGE MISS PENALTY: 188.833
LLC7 WRITEBACK ACCESS: 10085  HIT:  8965  MISS:  1120  HIT %: 88.8944  MISS %: 11.1056  AVERAGE MISS PENALTY: 0
LLC7 PREFETCH  REQUESTED:     0  ISSUED:     0  USEFUL: 10227  USELESS: 276067
 USEFUL LOAD PREFETCHES:      10227 PREFETCH ISSUED TO LOWER LEVEL:     287233  ACCURACY: 3.56052
 TIMELY PREFETCHES:      10227 LATE PREFETCHES: 0 DROPPED PREFETCHES: 0
LLC7 AVERAGE MISS LATENCY: 183.455 cycles
ROI Average ROB Stall Cycles:	7.22425
ROI Total ROB Stalls Cycles:	310829970
ROI TOTAL ROB counter      :	43025916
ROI Average Load ROB Stall Cycles:	10.1858
ROI Total Load ROB Stalls Cycle  :	65519096
ROI Total Load ROB stalls Counter:	6432412
Major fault: 0 Minor fault: 5898








Interconnect Stats 
LINK 0 BW : 0LINK 1 BW : 0LINK 2 BW : 0LINK 3 BW : 0LINK 4 BW : 0LINK 5 BW : 0LINK 6 BW : 0LINK 7 BW : 0
DRAM Statistics
 CHANNEL 0
 RQ ROW_BUFFER_HIT: 344804  ROW_BUFFER_MISS: 1241212
 DBUS_CONGESTED: 421902
 WQ ROW_BUFFER_HIT: 40553  ROW_BUFFER_MISS: 117287  FULL:     0

 CHANNEL 1
 RQ ROW_BUFFER_HIT: 343263  ROW_BUFFER_MISS: 1255611
 DBUS_CONGESTED: 421902
 WQ ROW_BUFFER_HIT: 41644  ROW_BUFFER_MISS: 117976  FULL:     0

 AVG_CONGESTED_CYCLE: 5
DRAM PAGES: 2097152
Allocated PAGES: 47184
L2C destructor called
L1D destructor called
L1I destructor called
STLB destructor called
DTLB destructor called
ITLB destructor called
L2C destructor called
L1D destructor called
L1I destructor called
STLB destructor called
DTLB destructor called
ITLB destructor called
L2C destructor called
L1D destructor called
L1I destructor called
STLB destructor called
DTLB destructor called
ITLB destructor called
L2C destructor called
L1D destructor called
L1I destructor called
STLB destructor called
DTLB destructor called
ITLB destructor called
L2C destructor called
L1D destructor called
L1I destructor called
STLB destructor called
DTLB destructor called
ITLB destructor called
L2C destructor called
L1D destructor called
L1I destructor called
STLB destructor called
DTLB destructor called
ITLB destructor called
L2C destructor called
L1D destructor called
L1I destructor called
STLB destructor called
DTLB destructor called
ITLB destructor called
L2C destructor called
L1D destructor called
L1I destructor called
STLB destructor called
DTLB destructor called
ITLB destructor called
