
*** ChampSim Multicore Out-of-Order Simulator ***

Warmup Instructions: 200000000
Simulation Instructions: 200000000
Number of CPUs: 8
threads:1

L1I Configuration:
L1I_SET:64
L1I_WAY:8
L1I_RQ_SIZE:64
L1I_WQ_SIZE:64
L1I_PQ_SIZE:8
L1I_MSHR_SIZE:8

L1D Configuration:
L1D_SET:64
L1D_WAY:12
L1D_RQ_SIZE:64
L1D_WQ_SIZE:64
L1D_PQ_SIZE:8
L1D_MSHR_SIZE:16

L2C Configuration:
L2C_SET:1024
L2C_WAY:8
L2C_RQ_SIZE:32
L2C_WQ_SIZE:32
L2C_PQ_SIZE:16
L2C_MSHR_SIZE:32

LLC Configuration:
LLC_SET:2048
LLC_WAY:16
LLC SLICES:8
LLC_RQ_SIZE:64
LLC_WQ_SIZE:64
LLC_PQ_SIZE:32
LLC_MSHR_SIZE:64

Interconnect OFF
Attacker deprioritize is: OFF
Off-chip DRAM Size: 8192 MB Channels: 2 Width: 64-bit Data Rate: 3200 MT/s
PAGE SIZE in KB: 4.000000 
PAGE SIZE in MB: 0.003906 
PAGE offset in bits: 12 
CEASER-S_LLC:0
MIRAGE : 1
CEASER_LATENCY:3
REMAP : OFF
Partitions : 1
Multi-Step : OFF
BFS : OFF

CPU 0 runs /home/anubhav/spec_2017/602.gcc_s-2226B.champsimtrace.xz
CPU 1 runs /home/anubhav/spec_2017/602.gcc_s-2226B.champsimtrace.xz
CPU 2 runs /home/anubhav/spec_2017/602.gcc_s-2226B.champsimtrace.xz
CPU 3 runs /home/anubhav/spec_2017/602.gcc_s-2226B.champsimtrace.xz
CPU 4 runs /home/anubhav/spec_2017/602.gcc_s-2226B.champsimtrace.xz
CPU 5 runs /home/anubhav/spec_2017/602.gcc_s-2226B.champsimtrace.xz
CPU 6 runs /home/anubhav/spec_2017/602.gcc_s-2226B.champsimtrace.xz
CPU 7 runs /home/anubhav/spec_2017/602.gcc_s-2226B.champsimtrace.xz
CPU 0 Bimodal branch predictor
Initialize Hawkeye state
Initialize Hawkeye state
Initialize Hawkeye state
Initialize Hawkeye state
Initialize Hawkeye state
Initialize Hawkeye state
Initialize Hawkeye state
Initialize Hawkeye state
CPU 1 Bimodal branch predictor
Initialize Hawkeye state
Initialize Hawkeye state
Initialize Hawkeye state
Initialize Hawkeye state
Initialize Hawkeye state
Initialize Hawkeye state
Initialize Hawkeye state
Initialize Hawkeye state
CPU 2 Bimodal branch predictor
Initialize Hawkeye state
Initialize Hawkeye state
Initialize Hawkeye state
Initialize Hawkeye state
Initialize Hawkeye state
Initialize Hawkeye state
Initialize Hawkeye state
Initialize Hawkeye state
CPU 3 Bimodal branch predictor
Initialize Hawkeye state
Initialize Hawkeye state
Initialize Hawkeye state
Initialize Hawkeye state
Initialize Hawkeye state
Initialize Hawkeye state
Initialize Hawkeye state
Initialize Hawkeye state
CPU 4 Bimodal branch predictor
Initialize Hawkeye state
Initialize Hawkeye state
Initialize Hawkeye state
Initialize Hawkeye state
Initialize Hawkeye state
Initialize Hawkeye state
Initialize Hawkeye state
Initialize Hawkeye state
CPU 5 Bimodal branch predictor
Initialize Hawkeye state
Initialize Hawkeye state
Initialize Hawkeye state
Initialize Hawkeye state
Initialize Hawkeye state
Initialize Hawkeye state
Initialize Hawkeye state
Initialize Hawkeye state
CPU 6 Bimodal branch predictor
Initialize Hawkeye state
Initialize Hawkeye state
Initialize Hawkeye state
Initialize Hawkeye state
Initialize Hawkeye state
Initialize Hawkeye state
Initialize Hawkeye state
Initialize Hawkeye state
CPU 7 Bimodal branch predictor
Initialize Hawkeye state
Initialize Hawkeye state
Initialize Hawkeye state
Initialize Hawkeye state
Initialize Hawkeye state
Initialize Hawkeye state
Initialize Hawkeye state
Initialize Hawkeye state
Heartbeat CPU 0 instructions: 10000001 cycles: 4875954 heartbeat IPC: 2.05088 cumulative IPC: 2.05088 (Simulation time: 1 hr 56 min 42 sec) 
 Total Blocks : 262144 Invalid Blocks : 0
Heartbeat CPU 1 instructions: 10000001 cycles: 4876056 heartbeat IPC: 2.05084 cumulative IPC: 2.05084 (Simulation time: 1 hr 56 min 43 sec) 
 Total Blocks : 262144 Invalid Blocks : 0
Heartbeat CPU 2 instructions: 10000001 cycles: 4876138 heartbeat IPC: 2.0508 cumulative IPC: 2.0508 (Simulation time: 1 hr 56 min 43 sec) 
 Total Blocks : 262144 Invalid Blocks : 0
Heartbeat CPU 3 instructions: 10000001 cycles: 4876249 heartbeat IPC: 2.05076 cumulative IPC: 2.05076 (Simulation time: 1 hr 56 min 43 sec) 
 Total Blocks : 262144 Invalid Blocks : 0
Heartbeat CPU 4 instructions: 10000001 cycles: 4876303 heartbeat IPC: 2.05073 cumulative IPC: 2.05073 (Simulation time: 1 hr 56 min 43 sec) 
 Total Blocks : 262144 Invalid Blocks : 0
Heartbeat CPU 5 instructions: 10000001 cycles: 4876418 heartbeat IPC: 2.05069 cumulative IPC: 2.05069 (Simulation time: 1 hr 56 min 44 sec) 
 Total Blocks : 262144 Invalid Blocks : 0
Heartbeat CPU 6 instructions: 10000001 cycles: 4876507 heartbeat IPC: 2.05065 cumulative IPC: 2.05065 (Simulation time: 1 hr 56 min 44 sec) 
 Total Blocks : 262144 Invalid Blocks : 0
Heartbeat CPU 7 instructions: 10000001 cycles: 4876589 heartbeat IPC: 2.05061 cumulative IPC: 2.05061 (Simulation time: 1 hr 56 min 44 sec) 
 Total Blocks : 262144 Invalid Blocks : 0
Heartbeat CPU 0 instructions: 20000000 cycles: 9742232 heartbeat IPC: 2.05496 cumulative IPC: 2.05292 (Simulation time: 7 hr 17 min 41 sec) 
 Total Blocks : 262144 Invalid Blocks : 0
Heartbeat CPU 1 instructions: 20000000 cycles: 9742388 heartbeat IPC: 2.05494 cumulative IPC: 2.05288 (Simulation time: 7 hr 17 min 42 sec) 
 Total Blocks : 262144 Invalid Blocks : 0
Heartbeat CPU 2 instructions: 20000000 cycles: 9742718 heartbeat IPC: 2.05483 cumulative IPC: 2.05282 (Simulation time: 7 hr 17 min 43 sec) 
 Total Blocks : 262144 Invalid Blocks : 0
Heartbeat CPU 3 instructions: 20000000 cycles: 9742842 heartbeat IPC: 2.05483 cumulative IPC: 2.05279 (Simulation time: 7 hr 17 min 44 sec) 
 Total Blocks : 262144 Invalid Blocks : 0
Heartbeat CPU 4 instructions: 20000000 cycles: 9743016 heartbeat IPC: 2.05477 cumulative IPC: 2.05275 (Simulation time: 7 hr 17 min 45 sec) 
 Total Blocks : 262144 Invalid Blocks : 0
Heartbeat CPU 5 instructions: 20000000 cycles: 9743276 heartbeat IPC: 2.05471 cumulative IPC: 2.0527 (Simulation time: 7 hr 17 min 46 sec) 
 Total Blocks : 262144 Invalid Blocks : 0
Heartbeat CPU 6 instructions: 20000000 cycles: 9743408 heartbeat IPC: 2.0547 cumulative IPC: 2.05267 (Simulation time: 7 hr 17 min 47 sec) 
 Total Blocks : 262144 Invalid Blocks : 0
Heartbeat CPU 7 instructions: 20000000 cycles: 9743534 heartbeat IPC: 2.05468 cumulative IPC: 2.05264 (Simulation time: 7 hr 17 min 48 sec) 
 Total Blocks : 262144 Invalid Blocks : 0
Heartbeat CPU 0 instructions: 30000000 cycles: 14590820 heartbeat IPC: 2.06246 cumulative IPC: 2.05609 (Simulation time: 15 hr 9 min 51 sec) 
 Total Blocks : 262144 Invalid Blocks : 0
Heartbeat CPU 1 instructions: 30000000 cycles: 14590999 heartbeat IPC: 2.06245 cumulative IPC: 2.05606 (Simulation time: 15 hr 9 min 53 sec) 
 Total Blocks : 262144 Invalid Blocks : 0
Heartbeat CPU 2 instructions: 30000000 cycles: 14591456 heartbeat IPC: 2.06239 cumulative IPC: 2.056 (Simulation time: 15 hr 9 min 55 sec) 
 Total Blocks : 262144 Invalid Blocks : 0
Heartbeat CPU 3 instructions: 30000000 cycles: 14591609 heartbeat IPC: 2.06238 cumulative IPC: 2.05598 (Simulation time: 15 hr 9 min 57 sec) 
 Total Blocks : 262144 Invalid Blocks : 0
Heartbeat CPU 4 instructions: 30000000 cycles: 14592011 heartbeat IPC: 2.06228 cumulative IPC: 2.05592 (Simulation time: 15 hr 10 min 0 sec) 
 Total Blocks : 262144 Invalid Blocks : 0
Heartbeat CPU 5 instructions: 30000000 cycles: 14592241 heartbeat IPC: 2.0623 cumulative IPC: 2.05589 (Simulation time: 15 hr 10 min 2 sec) 
 Total Blocks : 262144 Invalid Blocks : 0
Heartbeat CPU 6 instructions: 30000000 cycles: 14592367 heartbeat IPC: 2.0623 cumulative IPC: 2.05587 (Simulation time: 15 hr 10 min 4 sec) 
 Total Blocks : 262144 Invalid Blocks : 0
Heartbeat CPU 7 instructions: 30000000 cycles: 14592660 heartbeat IPC: 2.06223 cumulative IPC: 2.05583 (Simulation time: 15 hr 10 min 7 sec) 
 Total Blocks : 262144 Invalid Blocks : 0
Heartbeat CPU 0 instructions: 40000001 cycles: 19441264 heartbeat IPC: 2.06167 cumulative IPC: 2.05748 (Simulation time: 21 hr 14 min 55 sec) 
 Total Blocks : 262144 Invalid Blocks : 0
Heartbeat CPU 1 instructions: 40000001 cycles: 19441462 heartbeat IPC: 2.06166 cumulative IPC: 2.05746 (Simulation time: 21 hr 14 min 55 sec) 
 Total Blocks : 262144 Invalid Blocks : 0
Heartbeat CPU 2 instructions: 40000001 cycles: 19441990 heartbeat IPC: 2.06163 cumulative IPC: 2.0574 (Simulation time: 21 hr 14 min 55 sec) 
 Total Blocks : 262144 Invalid Blocks : 0
Heartbeat CPU 3 instructions: 40000001 cycles: 19442191 heartbeat IPC: 2.06161 cumulative IPC: 2.05738 (Simulation time: 21 hr 14 min 55 sec) 
 Total Blocks : 262144 Invalid Blocks : 0
Heartbeat CPU 4 instructions: 40000001 cycles: 19442743 heartbeat IPC: 2.06154 cumulative IPC: 2.05732 (Simulation time: 21 hr 14 min 55 sec) 
 Total Blocks : 262144 Invalid Blocks : 0
Heartbeat CPU 5 instructions: 40000001 cycles: 19443013 heartbeat IPC: 2.06153 cumulative IPC: 2.05729 (Simulation time: 21 hr 14 min 55 sec) 
 Total Blocks : 262144 Invalid Blocks : 0
Heartbeat CPU 6 instructions: 40000001 cycles: 19443185 heartbeat IPC: 2.06151 cumulative IPC: 2.05728 (Simulation time: 21 hr 14 min 55 sec) 
 Total Blocks : 262144 Invalid Blocks : 0
Heartbeat CPU 7 instructions: 40000001 cycles: 19443566 heartbeat IPC: 2.06147 cumulative IPC: 2.05724 (Simulation time: 21 hr 14 min 55 sec) 
 Total Blocks : 262144 Invalid Blocks : 0
Heartbeat CPU 0 instructions: 50000000 cycles: 24315898 heartbeat IPC: 2.05144 cumulative IPC: 2.05627 (Simulation time: 21 hr 31 min 9 sec) 
 Total Blocks : 262144 Invalid Blocks : 0
Heartbeat CPU 1 instructions: 50000000 cycles: 24316233 heartbeat IPC: 2.05138 cumulative IPC: 2.05624 (Simulation time: 21 hr 31 min 10 sec) 
 Total Blocks : 262144 Invalid Blocks : 0
Heartbeat CPU 2 instructions: 50000000 cycles: 24316844 heartbeat IPC: 2.05134 cumulative IPC: 2.05619 (Simulation time: 21 hr 31 min 10 sec) 
 Total Blocks : 262144 Invalid Blocks : 0
Heartbeat CPU 3 instructions: 50000000 cycles: 24317187 heartbeat IPC: 2.05128 cumulative IPC: 2.05616 (Simulation time: 21 hr 31 min 10 sec) 
 Total Blocks : 262144 Invalid Blocks : 0
Heartbeat CPU 4 instructions: 50000000 cycles: 24317770 heartbeat IPC: 2.05127 cumulative IPC: 2.05611 (Simulation time: 21 hr 31 min 10 sec) 
 Total Blocks : 262144 Invalid Blocks : 0
Heartbeat CPU 5 instructions: 50000000 cycles: 24318151 heartbeat IPC: 2.05122 cumulative IPC: 2.05608 (Simulation time: 21 hr 31 min 10 sec) 
 Total Blocks : 262144 Invalid Blocks : 0
Heartbeat CPU 6 instructions: 50000000 cycles: 24318374 heartbeat IPC: 2.0512 cumulative IPC: 2.05606 (Simulation time: 21 hr 31 min 10 sec) 
 Total Blocks : 262144 Invalid Blocks : 0
Heartbeat CPU 7 instructions: 50000000 cycles: 24318743 heartbeat IPC: 2.05121 cumulative IPC: 2.05603 (Simulation time: 21 hr 31 min 10 sec) 
 Total Blocks : 262144 Invalid Blocks : 0
Heartbeat CPU 0 instructions: 60000001 cycles: 29184277 heartbeat IPC: 2.05407 cumulative IPC: 2.0559 (Simulation time: 21 hr 47 min 16 sec) 
 Total Blocks : 262144 Invalid Blocks : 0
Heartbeat CPU 1 instructions: 60000001 cycles: 29184674 heartbeat IPC: 2.05405 cumulative IPC: 2.05587 (Simulation time: 21 hr 47 min 16 sec) 
 Total Blocks : 262144 Invalid Blocks : 0
Heartbeat CPU 2 instructions: 60000001 cycles: 29185315 heartbeat IPC: 2.05403 cumulative IPC: 2.05583 (Simulation time: 21 hr 47 min 16 sec) 
 Total Blocks : 262144 Invalid Blocks : 0
Heartbeat CPU 3 instructions: 60000001 cycles: 29185849 heartbeat IPC: 2.05395 cumulative IPC: 2.05579 (Simulation time: 21 hr 47 min 16 sec) 
 Total Blocks : 262144 Invalid Blocks : 0
Heartbeat CPU 4 instructions: 60000001 cycles: 29186451 heartbeat IPC: 2.05394 cumulative IPC: 2.05575 (Simulation time: 21 hr 47 min 17 sec) 
 Total Blocks : 262144 Invalid Blocks : 0
Heartbeat CPU 5 instructions: 60000001 cycles: 29186937 heartbeat IPC: 2.0539 cumulative IPC: 2.05571 (Simulation time: 21 hr 47 min 17 sec) 
 Total Blocks : 262144 Invalid Blocks : 0
Heartbeat CPU 6 instructions: 60000001 cycles: 29187280 heartbeat IPC: 2.05385 cumulative IPC: 2.05569 (Simulation time: 21 hr 47 min 17 sec) 
 Total Blocks : 262144 Invalid Blocks : 0
Heartbeat CPU 7 instructions: 60000001 cycles: 29187738 heartbeat IPC: 2.05381 cumulative IPC: 2.05566 (Simulation time: 21 hr 47 min 17 sec) 
 Total Blocks : 262144 Invalid Blocks : 0
Heartbeat CPU 0 instructions: 70000000 cycles: 34024452 heartbeat IPC: 2.06604 cumulative IPC: 2.05734 (Simulation time: 22 hr 3 min 44 sec) 
 Total Blocks : 262144 Invalid Blocks : 0
Heartbeat CPU 1 instructions: 70000000 cycles: 34024905 heartbeat IPC: 2.06602 cumulative IPC: 2.05732 (Simulation time: 22 hr 3 min 44 sec) 
 Total Blocks : 262144 Invalid Blocks : 0
Heartbeat CPU 2 instructions: 70000000 cycles: 34025558 heartbeat IPC: 2.06601 cumulative IPC: 2.05728 (Simulation time: 22 hr 3 min 44 sec) 
 Total Blocks : 262144 Invalid Blocks : 0
Heartbeat CPU 3 instructions: 70000000 cycles: 34026203 heartbeat IPC: 2.06596 cumulative IPC: 2.05724 (Simulation time: 22 hr 3 min 44 sec) 
 Total Blocks : 262144 Invalid Blocks : 0
Heartbeat CPU 4 instructions: 70000000 cycles: 34026842 heartbeat IPC: 2.06595 cumulative IPC: 2.0572 (Simulation time: 22 hr 3 min 45 sec) 
 Total Blocks : 262144 Invalid Blocks : 0
Heartbeat CPU 5 instructions: 70000000 cycles: 34027421 heartbeat IPC: 2.06591 cumulative IPC: 2.05716 (Simulation time: 22 hr 3 min 45 sec) 
 Total Blocks : 262144 Invalid Blocks : 0
Heartbeat CPU 6 instructions: 70000000 cycles: 34027784 heartbeat IPC: 2.0659 cumulative IPC: 2.05714 (Simulation time: 22 hr 3 min 45 sec) 
 Total Blocks : 262144 Invalid Blocks : 0
Heartbeat CPU 7 instructions: 70000000 cycles: 34028281 heartbeat IPC: 2.06588 cumulative IPC: 2.05711 (Simulation time: 22 hr 3 min 45 sec) 
 Total Blocks : 262144 Invalid Blocks : 0
Heartbeat CPU 0 instructions: 80000003 cycles: 38889856 heartbeat IPC: 2.05533 cumulative IPC: 2.05709 (Simulation time: 22 hr 21 min 14 sec) 
 Total Blocks : 262144 Invalid Blocks : 0
Heartbeat CPU 1 instructions: 80000003 cycles: 38890458 heartbeat IPC: 2.05527 cumulative IPC: 2.05706 (Simulation time: 22 hr 21 min 14 sec) 
 Total Blocks : 262144 Invalid Blocks : 0
Heartbeat CPU 2 instructions: 80000003 cycles: 38891139 heartbeat IPC: 2.05525 cumulative IPC: 2.05702 (Simulation time: 22 hr 21 min 15 sec) 
 Total Blocks : 262144 Invalid Blocks : 0
Heartbeat CPU 3 instructions: 80000003 cycles: 38891817 heartbeat IPC: 2.05524 cumulative IPC: 2.05699 (Simulation time: 22 hr 21 min 15 sec) 
 Total Blocks : 262144 Invalid Blocks : 0
Heartbeat CPU 4 instructions: 80000003 cycles: 38892502 heartbeat IPC: 2.05522 cumulative IPC: 2.05695 (Simulation time: 22 hr 21 min 15 sec) 
 Total Blocks : 262144 Invalid Blocks : 0
Heartbeat CPU 5 instructions: 80000003 cycles: 38893099 heartbeat IPC: 2.05521 cumulative IPC: 2.05692 (Simulation time: 22 hr 21 min 15 sec) 
 Total Blocks : 262144 Invalid Blocks : 0
Heartbeat CPU 6 instructions: 80000003 cycles: 38893629 heartbeat IPC: 2.05514 cumulative IPC: 2.05689 (Simulation time: 22 hr 21 min 15 sec) 
 Total Blocks : 262144 Invalid Blocks : 0
Heartbeat CPU 7 instructions: 80000003 cycles: 38894213 heartbeat IPC: 2.05511 cumulative IPC: 2.05686 (Simulation time: 22 hr 21 min 15 sec) 
 Total Blocks : 262144 Invalid Blocks : 0
Heartbeat CPU 0 instructions: 90000000 cycles: 43756975 heartbeat IPC: 2.0546 cumulative IPC: 2.05681 (Simulation time: 22 hr 37 min 33 sec) 
 Total Blocks : 262144 Invalid Blocks : 0
Heartbeat CPU 1 instructions: 90000000 cycles: 43757590 heartbeat IPC: 2.0546 cumulative IPC: 2.05679 (Simulation time: 22 hr 37 min 33 sec) 
 Total Blocks : 262144 Invalid Blocks : 0
Heartbeat CPU 2 instructions: 90000000 cycles: 43758431 heartbeat IPC: 2.05453 cumulative IPC: 2.05675 (Simulation time: 22 hr 37 min 34 sec) 
 Total Blocks : 262144 Invalid Blocks : 0
Heartbeat CPU 3 instructions: 90000000 cycles: 43759189 heartbeat IPC: 2.0545 cumulative IPC: 2.05671 (Simulation time: 22 hr 37 min 34 sec) 
 Total Blocks : 262144 Invalid Blocks : 0
Heartbeat CPU 4 instructions: 90000000 cycles: 43759835 heartbeat IPC: 2.05451 cumulative IPC: 2.05668 (Simulation time: 22 hr 37 min 34 sec) 
 Total Blocks : 262144 Invalid Blocks : 0
Heartbeat CPU 5 instructions: 90000000 cycles: 43760539 heartbeat IPC: 2.05447 cumulative IPC: 2.05665 (Simulation time: 22 hr 37 min 34 sec) 
 Total Blocks : 262144 Invalid Blocks : 0
Heartbeat CPU 6 instructions: 90000000 cycles: 43761213 heartbeat IPC: 2.05441 cumulative IPC: 2.05662 (Simulation time: 22 hr 37 min 34 sec) 
 Total Blocks : 262144 Invalid Blocks : 0
Heartbeat CPU 7 instructions: 90000000 cycles: 43761883 heartbeat IPC: 2.05437 cumulative IPC: 2.05658 (Simulation time: 22 hr 37 min 34 sec) 
 Total Blocks : 262144 Invalid Blocks : 0
Heartbeat CPU 0 instructions: 100000001 cycles: 48613694 heartbeat IPC: 2.059 cumulative IPC: 2.05703 (Simulation time: 22 hr 53 min 59 sec) 
 Total Blocks : 262144 Invalid Blocks : 0
Heartbeat CPU 1 instructions: 100000001 cycles: 48614347 heartbeat IPC: 2.05899 cumulative IPC: 2.05701 (Simulation time: 22 hr 53 min 59 sec) 
 Total Blocks : 262144 Invalid Blocks : 0
Heartbeat CPU 2 instructions: 100000001 cycles: 48615357 heartbeat IPC: 2.05892 cumulative IPC: 2.05696 (Simulation time: 22 hr 53 min 59 sec) 
 Total Blocks : 262144 Invalid Blocks : 0
Heartbeat CPU 3 instructions: 100000001 cycles: 48616271 heartbeat IPC: 2.05885 cumulative IPC: 2.05692 (Simulation time: 22 hr 53 min 59 sec) 
 Total Blocks : 262144 Invalid Blocks : 0
Heartbeat CPU 4 instructions: 100000001 cycles: 48616775 heartbeat IPC: 2.05891 cumulative IPC: 2.0569 (Simulation time: 22 hr 53 min 59 sec) 
 Total Blocks : 262144 Invalid Blocks : 0
Heartbeat CPU 5 instructions: 100000001 cycles: 48617599 heartbeat IPC: 2.05886 cumulative IPC: 2.05687 (Simulation time: 22 hr 53 min 59 sec) 
 Total Blocks : 262144 Invalid Blocks : 0
Heartbeat CPU 6 instructions: 100000001 cycles: 48618379 heartbeat IPC: 2.05881 cumulative IPC: 2.05684 (Simulation time: 22 hr 54 min 0 sec) 
 Total Blocks : 262144 Invalid Blocks : 0
Heartbeat CPU 7 instructions: 100000001 cycles: 48619142 heartbeat IPC: 2.05877 cumulative IPC: 2.0568 (Simulation time: 22 hr 54 min 0 sec) 
 Total Blocks : 262144 Invalid Blocks : 0
Heartbeat CPU 0 instructions: 110000000 cycles: 53454855 heartbeat IPC: 2.06562 cumulative IPC: 2.05781 (Simulation time: 23 hr 10 min 20 sec) 
 Total Blocks : 262144 Invalid Blocks : 0
Heartbeat CPU 1 instructions: 110000000 cycles: 53455525 heartbeat IPC: 2.06561 cumulative IPC: 2.05779 (Simulation time: 23 hr 10 min 20 sec) 
 Total Blocks : 262144 Invalid Blocks : 0
Heartbeat CPU 2 instructions: 110000000 cycles: 53456659 heartbeat IPC: 2.06556 cumulative IPC: 2.05774 (Simulation time: 23 hr 10 min 20 sec) 
 Total Blocks : 262144 Invalid Blocks : 0
Heartbeat CPU 3 instructions: 110000000 cycles: 53457568 heartbeat IPC: 2.06556 cumulative IPC: 2.05771 (Simulation time: 23 hr 10 min 21 sec) 
 Total Blocks : 262144 Invalid Blocks : 0
Heartbeat CPU 4 instructions: 110000000 cycles: 53458095 heartbeat IPC: 2.06555 cumulative IPC: 2.05769 (Simulation time: 23 hr 10 min 21 sec) 
 Total Blocks : 262144 Invalid Blocks : 0
Heartbeat CPU 5 instructions: 110000000 cycles: 53459023 heartbeat IPC: 2.06551 cumulative IPC: 2.05765 (Simulation time: 23 hr 10 min 21 sec) 
 Total Blocks : 262144 Invalid Blocks : 0
Heartbeat CPU 6 instructions: 110000000 cycles: 53459832 heartbeat IPC: 2.0655 cumulative IPC: 2.05762 (Simulation time: 23 hr 10 min 21 sec) 
 Total Blocks : 262144 Invalid Blocks : 0
Heartbeat CPU 7 instructions: 110000000 cycles: 53460691 heartbeat IPC: 2.06545 cumulative IPC: 2.05759 (Simulation time: 23 hr 10 min 21 sec) 
 Total Blocks : 262144 Invalid Blocks : 0
Heartbeat CPU 0 instructions: 120000002 cycles: 58389263 heartbeat IPC: 2.02659 cumulative IPC: 2.05517 (Simulation time: 23 hr 31 min 7 sec) 
 Total Blocks : 262144 Invalid Blocks : 0
Heartbeat CPU 1 instructions: 120000002 cycles: 58390099 heartbeat IPC: 2.02652 cumulative IPC: 2.05514 (Simulation time: 23 hr 31 min 7 sec) 
 Total Blocks : 262144 Invalid Blocks : 0
Heartbeat CPU 2 instructions: 120000002 cycles: 58391338 heartbeat IPC: 2.02647 cumulative IPC: 2.0551 (Simulation time: 23 hr 31 min 8 sec) 
 Total Blocks : 262144 Invalid Blocks : 0
Heartbeat CPU 3 instructions: 120000002 cycles: 58392304 heartbeat IPC: 2.02645 cumulative IPC: 2.05507 (Simulation time: 23 hr 31 min 8 sec) 
 Total Blocks : 262144 Invalid Blocks : 0
Heartbeat CPU 4 instructions: 120000002 cycles: 58392886 heartbeat IPC: 2.02643 cumulative IPC: 2.05504 (Simulation time: 23 hr 31 min 8 sec) 
 Total Blocks : 262144 Invalid Blocks : 0
Heartbeat CPU 5 instructions: 120000002 cycles: 58393830 heartbeat IPC: 2.02642 cumulative IPC: 2.05501 (Simulation time: 23 hr 31 min 8 sec) 
 Total Blocks : 262144 Invalid Blocks : 0
Heartbeat CPU 6 instructions: 120000002 cycles: 58394765 heartbeat IPC: 2.02637 cumulative IPC: 2.05498 (Simulation time: 23 hr 31 min 8 sec) 
 Total Blocks : 262144 Invalid Blocks : 0
Heartbeat CPU 7 instructions: 120000002 cycles: 58395587 heartbeat IPC: 2.02639 cumulative IPC: 2.05495 (Simulation time: 23 hr 31 min 9 sec) 
 Total Blocks : 262144 Invalid Blocks : 0
Heartbeat CPU 0 instructions: 130000000 cycles: 63255800 heartbeat IPC: 2.05485 cumulative IPC: 2.05515 (Simulation time: 23 hr 47 min 37 sec) 
 Total Blocks : 262144 Invalid Blocks : 0
Heartbeat CPU 1 instructions: 130000000 cycles: 63256757 heartbeat IPC: 2.0548 cumulative IPC: 2.05512 (Simulation time: 23 hr 47 min 38 sec) 
 Total Blocks : 262144 Invalid Blocks : 0
Heartbeat CPU 2 instructions: 130000000 cycles: 63258038 heartbeat IPC: 2.05478 cumulative IPC: 2.05507 (Simulation time: 23 hr 47 min 38 sec) 
 Total Blocks : 262144 Invalid Blocks : 0
Heartbeat CPU 3 instructions: 130000000 cycles: 63259020 heartbeat IPC: 2.05477 cumulative IPC: 2.05504 (Simulation time: 23 hr 47 min 38 sec) 
 Total Blocks : 262144 Invalid Blocks : 0
Heartbeat CPU 4 instructions: 130000000 cycles: 63259772 heartbeat IPC: 2.0547 cumulative IPC: 2.05502 (Simulation time: 23 hr 47 min 38 sec) 
 Total Blocks : 262144 Invalid Blocks : 0
Heartbeat CPU 5 instructions: 130000000 cycles: 63260869 heartbeat IPC: 2.05464 cumulative IPC: 2.05498 (Simulation time: 23 hr 47 min 38 sec) 
 Total Blocks : 262144 Invalid Blocks : 0
Heartbeat CPU 6 instructions: 130000000 cycles: 63261830 heartbeat IPC: 2.05463 cumulative IPC: 2.05495 (Simulation time: 23 hr 47 min 39 sec) 
 Total Blocks : 262144 Invalid Blocks : 0
Heartbeat CPU 7 instructions: 130000000 cycles: 63262701 heartbeat IPC: 2.05461 cumulative IPC: 2.05492 (Simulation time: 23 hr 47 min 39 sec) 
 Total Blocks : 262144 Invalid Blocks : 0
Heartbeat CPU 0 instructions: 140000003 cycles: 68104151 heartbeat IPC: 2.06256 cumulative IPC: 2.05568 (Simulation time: 24 hr 3 min 59 sec) 
 Total Blocks : 262144 Invalid Blocks : 0
Heartbeat CPU 1 instructions: 140000003 cycles: 68105255 heartbeat IPC: 2.06249 cumulative IPC: 2.05564 (Simulation time: 24 hr 3 min 59 sec) 
 Total Blocks : 262144 Invalid Blocks : 0
Heartbeat CPU 2 instructions: 140000003 cycles: 68106546 heartbeat IPC: 2.06249 cumulative IPC: 2.0556 (Simulation time: 24 hr 3 min 59 sec) 
 Total Blocks : 262144 Invalid Blocks : 0
Heartbeat CPU 3 instructions: 140000003 cycles: 68107572 heartbeat IPC: 2.06247 cumulative IPC: 2.05557 (Simulation time: 24 hr 4 min 0 sec) 
 Total Blocks : 262144 Invalid Blocks : 0
Heartbeat CPU 4 instructions: 140000003 cycles: 68108411 heartbeat IPC: 2.06244 cumulative IPC: 2.05555 (Simulation time: 24 hr 4 min 0 sec) 
 Total Blocks : 262144 Invalid Blocks : 0
Heartbeat CPU 5 instructions: 140000003 cycles: 68109585 heartbeat IPC: 2.0624 cumulative IPC: 2.05551 (Simulation time: 24 hr 4 min 0 sec) 
 Total Blocks : 262144 Invalid Blocks : 0
Heartbeat CPU 6 instructions: 140000003 cycles: 68110520 heartbeat IPC: 2.06241 cumulative IPC: 2.05548 (Simulation time: 24 hr 4 min 0 sec) 
 Total Blocks : 262144 Invalid Blocks : 0
Heartbeat CPU 7 instructions: 140000003 cycles: 68111461 heartbeat IPC: 2.06238 cumulative IPC: 2.05545 (Simulation time: 24 hr 4 min 0 sec) 
 Total Blocks : 262144 Invalid Blocks : 0
Heartbeat CPU 0 instructions: 150000000 cycles: 72956936 heartbeat IPC: 2.06067 cumulative IPC: 2.05601 (Simulation time: 24 hr 20 min 29 sec) 
 Total Blocks : 262144 Invalid Blocks : 0
Heartbeat CPU 1 instructions: 150000000 cycles: 72958107 heartbeat IPC: 2.06064 cumulative IPC: 2.05597 (Simulation time: 24 hr 20 min 29 sec) 
 Total Blocks : 262144 Invalid Blocks : 0
Heartbeat CPU 2 instructions: 150000000 cycles: 72959462 heartbeat IPC: 2.06062 cumulative IPC: 2.05594 (Simulation time: 24 hr 20 min 30 sec) 
 Total Blocks : 262144 Invalid Blocks : 0
Heartbeat CPU 3 instructions: 150000000 cycles: 72960647 heartbeat IPC: 2.06055 cumulative IPC: 2.0559 (Simulation time: 24 hr 20 min 30 sec) 
 Total Blocks : 262144 Invalid Blocks : 0
Heartbeat CPU 4 instructions: 150000000 cycles: 72961497 heartbeat IPC: 2.06054 cumulative IPC: 2.05588 (Simulation time: 24 hr 20 min 30 sec) 
 Total Blocks : 262144 Invalid Blocks : 0
Heartbeat CPU 5 instructions: 150000000 cycles: 72962692 heartbeat IPC: 2.06053 cumulative IPC: 2.05585 (Simulation time: 24 hr 20 min 30 sec) 
 Total Blocks : 262144 Invalid Blocks : 0
Heartbeat CPU 6 instructions: 150000000 cycles: 72963664 heartbeat IPC: 2.06052 cumulative IPC: 2.05582 (Simulation time: 24 hr 20 min 31 sec) 
 Total Blocks : 262144 Invalid Blocks : 0
Heartbeat CPU 7 instructions: 150000000 cycles: 72964677 heartbeat IPC: 2.06049 cumulative IPC: 2.05579 (Simulation time: 24 hr 20 min 31 sec) 
 Total Blocks : 262144 Invalid Blocks : 0
Heartbeat CPU 0 instructions: 160000001 cycles: 77830076 heartbeat IPC: 2.05207 cumulative IPC: 2.05576 (Simulation time: 24 hr 38 min 8 sec) 
 Total Blocks : 262144 Invalid Blocks : 0
Heartbeat CPU 1 instructions: 160000001 cycles: 77831336 heartbeat IPC: 2.05203 cumulative IPC: 2.05573 (Simulation time: 24 hr 38 min 8 sec) 
 Total Blocks : 262144 Invalid Blocks : 0
Heartbeat CPU 2 instructions: 160000001 cycles: 77832704 heartbeat IPC: 2.05202 cumulative IPC: 2.05569 (Simulation time: 24 hr 38 min 8 sec) 
 Total Blocks : 262144 Invalid Blocks : 0
Heartbeat CPU 3 instructions: 160000001 cycles: 77834036 heartbeat IPC: 2.05196 cumulative IPC: 2.05566 (Simulation time: 24 hr 38 min 9 sec) 
 Total Blocks : 262144 Invalid Blocks : 0
Heartbeat CPU 4 instructions: 160000001 cycles: 77835027 heartbeat IPC: 2.0519 cumulative IPC: 2.05563 (Simulation time: 24 hr 38 min 9 sec) 
 Total Blocks : 262144 Invalid Blocks : 0
Heartbeat CPU 5 instructions: 160000001 cycles: 77836243 heartbeat IPC: 2.05189 cumulative IPC: 2.0556 (Simulation time: 24 hr 38 min 9 sec) 
 Total Blocks : 262144 Invalid Blocks : 0
Heartbeat CPU 6 instructions: 160000001 cycles: 77837214 heartbeat IPC: 2.05189 cumulative IPC: 2.05557 (Simulation time: 24 hr 38 min 9 sec) 
 Total Blocks : 262144 Invalid Blocks : 0
Heartbeat CPU 7 instructions: 160000001 cycles: 77838379 heartbeat IPC: 2.05183 cumulative IPC: 2.05554 (Simulation time: 24 hr 38 min 9 sec) 
 Total Blocks : 262144 Invalid Blocks : 0
Heartbeat CPU 0 instructions: 170000000 cycles: 82695551 heartbeat IPC: 2.0553 cumulative IPC: 2.05573 (Simulation time: 24 hr 54 min 27 sec) 
 Total Blocks : 262144 Invalid Blocks : 0
Heartbeat CPU 1 instructions: 170000000 cycles: 82696927 heartbeat IPC: 2.05525 cumulative IPC: 2.0557 (Simulation time: 24 hr 54 min 28 sec) 
 Total Blocks : 262144 Invalid Blocks : 0
Heartbeat CPU 2 instructions: 170000000 cycles: 82698304 heartbeat IPC: 2.05524 cumulative IPC: 2.05566 (Simulation time: 24 hr 54 min 28 sec) 
 Total Blocks : 262144 Invalid Blocks : 0
Heartbeat CPU 3 instructions: 170000000 cycles: 82699836 heartbeat IPC: 2.05516 cumulative IPC: 2.05563 (Simulation time: 24 hr 54 min 28 sec) 
 Total Blocks : 262144 Invalid Blocks : 0
Heartbeat CPU 4 instructions: 170000000 cycles: 82700914 heartbeat IPC: 2.05512 cumulative IPC: 2.0556 (Simulation time: 24 hr 54 min 28 sec) 
 Total Blocks : 262144 Invalid Blocks : 0
Heartbeat CPU 5 instructions: 170000000 cycles: 82702133 heartbeat IPC: 2.05512 cumulative IPC: 2.05557 (Simulation time: 24 hr 54 min 29 sec) 
 Total Blocks : 262144 Invalid Blocks : 0
Heartbeat CPU 6 instructions: 170000000 cycles: 82703220 heartbeat IPC: 2.05507 cumulative IPC: 2.05554 (Simulation time: 24 hr 54 min 29 sec) 
 Total Blocks : 262144 Invalid Blocks : 0
Heartbeat CPU 7 instructions: 170000000 cycles: 82704381 heartbeat IPC: 2.05507 cumulative IPC: 2.05551 (Simulation time: 24 hr 54 min 29 sec) 
 Total Blocks : 262144 Invalid Blocks : 0
Heartbeat CPU 0 instructions: 180000003 cycles: 87536078 heartbeat IPC: 2.06589 cumulative IPC: 2.0563 (Simulation time: 25 hr 10 min 49 sec) 
 Total Blocks : 262144 Invalid Blocks : 0
Heartbeat CPU 1 instructions: 180000003 cycles: 87537491 heartbeat IPC: 2.06588 cumulative IPC: 2.05626 (Simulation time: 25 hr 10 min 49 sec) 
 Total Blocks : 262144 Invalid Blocks : 0
Heartbeat CPU 2 instructions: 180000003 cycles: 87538907 heartbeat IPC: 2.06586 cumulative IPC: 2.05623 (Simulation time: 25 hr 10 min 49 sec) 
 Total Blocks : 262144 Invalid Blocks : 0
Heartbeat CPU 3 instructions: 180000003 cycles: 87540543 heartbeat IPC: 2.06581 cumulative IPC: 2.05619 (Simulation time: 25 hr 10 min 50 sec) 
 Total Blocks : 262144 Invalid Blocks : 0
Heartbeat CPU 4 instructions: 180000003 cycles: 87541782 heartbeat IPC: 2.06575 cumulative IPC: 2.05616 (Simulation time: 25 hr 10 min 50 sec) 
 Total Blocks : 262144 Invalid Blocks : 0
Heartbeat CPU 5 instructions: 180000003 cycles: 87542980 heartbeat IPC: 2.06575 cumulative IPC: 2.05613 (Simulation time: 25 hr 10 min 50 sec) 
 Total Blocks : 262144 Invalid Blocks : 0
Heartbeat CPU 6 instructions: 180000003 cycles: 87544085 heartbeat IPC: 2.06575 cumulative IPC: 2.05611 (Simulation time: 25 hr 10 min 50 sec) 
 Total Blocks : 262144 Invalid Blocks : 0
Heartbeat CPU 7 instructions: 180000003 cycles: 87545303 heartbeat IPC: 2.06572 cumulative IPC: 2.05608 (Simulation time: 25 hr 10 min 51 sec) 
 Total Blocks : 262144 Invalid Blocks : 0
Heartbeat CPU 0 instructions: 190000001 cycles: 92460604 heartbeat IPC: 2.03065 cumulative IPC: 2.05493 (Simulation time: 25 hr 28 min 25 sec) 
 Total Blocks : 262144 Invalid Blocks : 0
Heartbeat CPU 1 instructions: 190000001 cycles: 92462033 heartbeat IPC: 2.03065 cumulative IPC: 2.0549 (Simulation time: 25 hr 28 min 25 sec) 
 Total Blocks : 262144 Invalid Blocks : 0
Heartbeat CPU 2 instructions: 190000001 cycles: 92463659 heartbeat IPC: 2.03056 cumulative IPC: 2.05486 (Simulation time: 25 hr 28 min 26 sec) 
 Total Blocks : 262144 Invalid Blocks : 0
Heartbeat CPU 3 instructions: 190000001 cycles: 92465280 heartbeat IPC: 2.03056 cumulative IPC: 2.05483 (Simulation time: 25 hr 28 min 26 sec) 
 Total Blocks : 262144 Invalid Blocks : 0
Heartbeat CPU 4 instructions: 190000001 cycles: 92466656 heartbeat IPC: 2.03051 cumulative IPC: 2.05479 (Simulation time: 25 hr 28 min 26 sec) 
 Total Blocks : 262144 Invalid Blocks : 0
Heartbeat CPU 5 instructions: 190000001 cycles: 92467896 heartbeat IPC: 2.03049 cumulative IPC: 2.05477 (Simulation time: 25 hr 28 min 26 sec) 
 Total Blocks : 262144 Invalid Blocks : 0
Heartbeat CPU 6 instructions: 190000001 cycles: 92469180 heartbeat IPC: 2.03042 cumulative IPC: 2.05474 (Simulation time: 25 hr 28 min 26 sec) 
 Total Blocks : 262144 Invalid Blocks : 0
Heartbeat CPU 7 instructions: 190000001 cycles: 92470364 heartbeat IPC: 2.03043 cumulative IPC: 2.05471 (Simulation time: 25 hr 28 min 26 sec) 
 Total Blocks : 262144 Invalid Blocks : 0
Heartbeat CPU 0 instructions: 200000000 cycles: 97327041 heartbeat IPC: 2.05489 cumulative IPC: 2.05493 (Simulation time: 25 hr 38 min 50 sec) 
 Total Blocks : 262144 Invalid Blocks : 0
Heartbeat CPU 1 instructions: 200000000 cycles: 97328444 heartbeat IPC: 2.0549 cumulative IPC: 2.0549 (Simulation time: 25 hr 38 min 51 sec) 
 Total Blocks : 262144 Invalid Blocks : 0
Heartbeat CPU 2 instructions: 200000000 cycles: 97330215 heartbeat IPC: 2.05484 cumulative IPC: 2.05486 (Simulation time: 25 hr 38 min 51 sec) 
 Total Blocks : 262144 Invalid Blocks : 0
Heartbeat CPU 3 instructions: 200000000 cycles: 97332029 heartbeat IPC: 2.05476 cumulative IPC: 2.05482 (Simulation time: 25 hr 38 min 51 sec) 
 Total Blocks : 262144 Invalid Blocks : 0
Heartbeat CPU 4 instructions: 200000000 cycles: 97333409 heartbeat IPC: 2.05476 cumulative IPC: 2.05479 (Simulation time: 25 hr 38 min 51 sec) 
 Total Blocks : 262144 Invalid Blocks : 0
Heartbeat CPU 5 instructions: 200000000 cycles: 97334681 heartbeat IPC: 2.05474 cumulative IPC: 2.05477 (Simulation time: 25 hr 38 min 51 sec) 
 Total Blocks : 262144 Invalid Blocks : 0
Heartbeat CPU 6 instructions: 200000000 cycles: 97336086 heartbeat IPC: 2.05469 cumulative IPC: 2.05474 (Simulation time: 25 hr 38 min 52 sec) 
 Total Blocks : 262144 Invalid Blocks : 0
Heartbeat CPU 7 instructions: 200000000 cycles: 97337373 heartbeat IPC: 2.05465 cumulative IPC: 2.05471 (Simulation time: 25 hr 38 min 52 sec) 
 Total Blocks : 262144 Invalid Blocks : 0

Warmup complete CPU 0 instructions: 200021806 cycles: 97337375 (Simulation time: 25 hr 38 min 52 sec) 
Warmup complete CPU 1 instructions: 200018646 cycles: 97337375 (Simulation time: 25 hr 38 min 52 sec) 
Warmup complete CPU 2 instructions: 200014917 cycles: 97337375 (Simulation time: 25 hr 38 min 52 sec) 
Warmup complete CPU 3 instructions: 200011172 cycles: 97337375 (Simulation time: 25 hr 38 min 52 sec) 
Warmup complete CPU 4 instructions: 200008092 cycles: 97337375 (Simulation time: 25 hr 38 min 52 sec) 
Warmup complete CPU 5 instructions: 200006080 cycles: 97337375 (Simulation time: 25 hr 38 min 52 sec) 
Warmup complete CPU 6 instructions: 200002874 cycles: 97337375 (Simulation time: 25 hr 38 min 52 sec) 
Warmup complete CPU 7 instructions: 200000001 cycles: 97337375 (Simulation time: 25 hr 38 min 52 sec) 

Heartbeat CPU 1 instructions: 210000002 cycles: 151487707 heartbeat IPC: 0.184641 cumulative IPC: 0.184327 (Simulation time: 26 hr 25 min 14 sec) 
 Total Blocks : 262144 Invalid Blocks : 0
Heartbeat CPU 4 instructions: 210000002 cycles: 151493642 heartbeat IPC: 0.184637 cumulative IPC: 0.184501 (Simulation time: 26 hr 25 min 14 sec) 
 Total Blocks : 262144 Invalid Blocks : 0
Heartbeat CPU 0 instructions: 210000002 cycles: 151766826 heartbeat IPC: 0.183689 cumulative IPC: 0.183323 (Simulation time: 26 hr 25 min 29 sec) 
 Total Blocks : 262144 Invalid Blocks : 0
Heartbeat CPU 2 instructions: 210000002 cycles: 151931643 heartbeat IPC: 0.183145 cumulative IPC: 0.182896 (Simulation time: 26 hr 25 min 37 sec) 
 Total Blocks : 262144 Invalid Blocks : 0
Heartbeat CPU 3 instructions: 210000002 cycles: 151993605 heartbeat IPC: 0.182944 cumulative IPC: 0.182757 (Simulation time: 26 hr 25 min 40 sec) 
 Total Blocks : 262144 Invalid Blocks : 0
Heartbeat CPU 6 instructions: 210000002 cycles: 152103664 heartbeat IPC: 0.18259 cumulative IPC: 0.182542 (Simulation time: 26 hr 25 min 46 sec) 
 Total Blocks : 262144 Invalid Blocks : 0
Heartbeat CPU 5 instructions: 210000002 cycles: 152445382 heartbeat IPC: 0.181453 cumulative IPC: 0.181352 (Simulation time: 26 hr 26 min 4 sec) 
 Total Blocks : 262144 Invalid Blocks : 0
Heartbeat CPU 7 instructions: 210000002 cycles: 152653123 heartbeat IPC: 0.18078 cumulative IPC: 0.18078 (Simulation time: 26 hr 26 min 15 sec) 
 Total Blocks : 262144 Invalid Blocks : 0
Heartbeat CPU 1 instructions: 220000000 cycles: 205997744 heartbeat IPC: 0.183452 cumulative IPC: 0.183888 (Simulation time: 27 hr 9 min 52 sec) 
 Total Blocks : 262144 Invalid Blocks : 0
Heartbeat CPU 4 instructions: 220000000 cycles: 206021635 heartbeat IPC: 0.183392 cumulative IPC: 0.183945 (Simulation time: 27 hr 9 min 53 sec) 
 Total Blocks : 262144 Invalid Blocks : 0
Heartbeat CPU 0 instructions: 220000000 cycles: 206787079 heartbeat IPC: 0.181751 cumulative IPC: 0.182533 (Simulation time: 27 hr 10 min 30 sec) 
 Total Blocks : 262144 Invalid Blocks : 0
Heartbeat CPU 3 instructions: 220000000 cycles: 206806507 heartbeat IPC: 0.182439 cumulative IPC: 0.182598 (Simulation time: 27 hr 10 min 31 sec) 
 Total Blocks : 262144 Invalid Blocks : 0
Heartbeat CPU 2 instructions: 220000000 cycles: 207055191 heartbeat IPC: 0.181411 cumulative IPC: 0.18215 (Simulation time: 27 hr 10 min 43 sec) 
 Total Blocks : 262144 Invalid Blocks : 0
Heartbeat CPU 6 instructions: 220000000 cycles: 207422666 heartbeat IPC: 0.18077 cumulative IPC: 0.181651 (Simulation time: 27 hr 11 min 1 sec) 
 Total Blocks : 262144 Invalid Blocks : 0
Heartbeat CPU 5 instructions: 220000000 cycles: 207727547 heartbeat IPC: 0.18089 cumulative IPC: 0.18112 (Simulation time: 27 hr 11 min 15 sec) 
 Total Blocks : 262144 Invalid Blocks : 0
Heartbeat CPU 7 instructions: 220000000 cycles: 207759992 heartbeat IPC: 0.181466 cumulative IPC: 0.181122 (Simulation time: 27 hr 11 min 17 sec) 
 Total Blocks : 262144 Invalid Blocks : 0
Heartbeat CPU 1 instructions: 230000000 cycles: 261482311 heartbeat IPC: 0.18023 cumulative IPC: 0.182652 (Simulation time: 27 hr 55 min 51 sec) 
 Total Blocks : 262144 Invalid Blocks : 0
Heartbeat CPU 4 instructions: 230000000 cycles: 261492407 heartbeat IPC: 0.180275 cumulative IPC: 0.182705 (Simulation time: 27 hr 55 min 51 sec) 
 Total Blocks : 262144 Invalid Blocks : 0
Heartbeat CPU 3 instructions: 230000000 cycles: 262226506 heartbeat IPC: 0.18044 cumulative IPC: 0.181873 (Simulation time: 27 hr 56 min 26 sec) 
 Total Blocks : 262144 Invalid Blocks : 0
Heartbeat CPU 0 instructions: 230000000 cycles: 262261717 heartbeat IPC: 0.180263 cumulative IPC: 0.181769 (Simulation time: 27 hr 56 min 28 sec) 
 Total Blocks : 262144 Invalid Blocks : 0
Heartbeat CPU 2 instructions: 230000000 cycles: 262748867 heartbeat IPC: 0.179554 cumulative IPC: 0.181276 (Simulation time: 27 hr 56 min 52 sec) 
 Total Blocks : 262144 Invalid Blocks : 0
Heartbeat CPU 6 instructions: 230000000 cycles: 263417779 heartbeat IPC: 0.178587 cumulative IPC: 0.180618 (Simulation time: 27 hr 57 min 24 sec) 
 Total Blocks : 262144 Invalid Blocks : 0
Heartbeat CPU 5 instructions: 230000000 cycles: 263478772 heartbeat IPC: 0.179368 cumulative IPC: 0.180532 (Simulation time: 27 hr 57 min 27 sec) 
 Total Blocks : 262144 Invalid Blocks : 0
Heartbeat CPU 7 instructions: 230000000 cycles: 263554398 heartbeat IPC: 0.179229 cumulative IPC: 0.180487 (Simulation time: 27 hr 57 min 30 sec) 
 Total Blocks : 262144 Invalid Blocks : 0
Heartbeat CPU 1 instructions: 240000000 cycles: 316393024 heartbeat IPC: 0.182114 cumulative IPC: 0.182517 (Simulation time: 28 hr 40 min 7 sec) 
 Total Blocks : 262144 Invalid Blocks : 0
Heartbeat CPU 4 instructions: 240000000 cycles: 316423570 heartbeat IPC: 0.182046 cumulative IPC: 0.18254 (Simulation time: 28 hr 40 min 9 sec) 
 Total Blocks : 262144 Invalid Blocks : 0
Heartbeat CPU 3 instructions: 240000000 cycles: 318086977 heartbeat IPC: 0.179017 cumulative IPC: 0.18115 (Simulation time: 28 hr 41 min 29 sec) 
 Total Blocks : 262144 Invalid Blocks : 0
Heartbeat CPU 0 instructions: 240000000 cycles: 318138166 heartbeat IPC: 0.178966 cumulative IPC: 0.18106 (Simulation time: 28 hr 41 min 32 sec) 
 Total Blocks : 262144 Invalid Blocks : 0
Heartbeat CPU 2 instructions: 240000000 cycles: 318407450 heartbeat IPC: 0.179667 cumulative IPC: 0.180871 (Simulation time: 28 hr 41 min 45 sec) 
 Total Blocks : 262144 Invalid Blocks : 0
Heartbeat CPU 6 instructions: 240000000 cycles: 318433981 heartbeat IPC: 0.181765 cumulative IPC: 0.180903 (Simulation time: 28 hr 41 min 46 sec) 
 Total Blocks : 262144 Invalid Blocks : 0
Heartbeat CPU 5 instructions: 240000000 cycles: 318714785 heartbeat IPC: 0.181041 cumulative IPC: 0.180659 (Simulation time: 28 hr 42 min 0 sec) 
 Total Blocks : 262144 Invalid Blocks : 0
Heartbeat CPU 7 instructions: 240000000 cycles: 319419976 heartbeat IPC: 0.179001 cumulative IPC: 0.180113 (Simulation time: 28 hr 42 min 33 sec) 
 Total Blocks : 262144 Invalid Blocks : 0
Heartbeat CPU 1 instructions: 250000003 cycles: 371588746 heartbeat IPC: 0.181174 cumulative IPC: 0.182247 (Simulation time: 29 hr 24 min 35 sec) 
 Total Blocks : 262144 Invalid Blocks : 0
Heartbeat CPU 4 instructions: 250000003 cycles: 371615566 heartbeat IPC: 0.181186 cumulative IPC: 0.182267 (Simulation time: 29 hr 24 min 36 sec) 
 Total Blocks : 262144 Invalid Blocks : 0
Heartbeat CPU 3 instructions: 250000003 cycles: 373110526 heartbeat IPC: 0.18174 cumulative IPC: 0.181268 (Simulation time: 29 hr 25 min 48 sec) 
 Total Blocks : 262144 Invalid Blocks : 0
Heartbeat CPU 0 instructions: 250000003 cycles: 373131826 heartbeat IPC: 0.181839 cumulative IPC: 0.181215 (Simulation time: 29 hr 25 min 49 sec) 
 Total Blocks : 262144 Invalid Blocks : 0
Heartbeat CPU 6 instructions: 250000003 cycles: 373738564 heartbeat IPC: 0.180817 cumulative IPC: 0.180886 (Simulation time: 29 hr 26 min 18 sec) 
 Total Blocks : 262144 Invalid Blocks : 0
Heartbeat CPU 2 instructions: 250000003 cycles: 373864834 heartbeat IPC: 0.180319 cumulative IPC: 0.18076 (Simulation time: 29 hr 26 min 25 sec) 
 Total Blocks : 262144 Invalid Blocks : 0
Heartbeat CPU 5 instructions: 250000003 cycles: 374273812 heartbeat IPC: 0.179989 cumulative IPC: 0.180525 (Simulation time: 29 hr 26 min 44 sec) 
 Total Blocks : 262144 Invalid Blocks : 0
Heartbeat CPU 7 instructions: 250000003 cycles: 374933178 heartbeat IPC: 0.180137 cumulative IPC: 0.180118 (Simulation time: 29 hr 27 min 16 sec) 
 Total Blocks : 262144 Invalid Blocks : 0
Heartbeat CPU 1 instructions: 260000000 cycles: 426882641 heartbeat IPC: 0.180852 cumulative IPC: 0.182012 (Simulation time: 30 hr 9 min 4 sec) 
 Total Blocks : 262144 Invalid Blocks : 0
Heartbeat CPU 4 instructions: 260000000 cycles: 426979493 heartbeat IPC: 0.180623 cumulative IPC: 0.181991 (Simulation time: 30 hr 9 min 9 sec) 
 Total Blocks : 262144 Invalid Blocks : 0
Heartbeat CPU 0 instructions: 260000000 cycles: 428187235 heartbeat IPC: 0.181635 cumulative IPC: 0.181285 (Simulation time: 30 hr 10 min 6 sec) 
 Total Blocks : 262144 Invalid Blocks : 0
Heartbeat CPU 3 instructions: 260000000 cycles: 428252548 heartbeat IPC: 0.18135 cumulative IPC: 0.181282 (Simulation time: 30 hr 10 min 9 sec) 
 Total Blocks : 262144 Invalid Blocks : 0
Heartbeat CPU 6 instructions: 260000000 cycles: 429265211 heartbeat IPC: 0.180094 cumulative IPC: 0.180754 (Simulation time: 30 hr 10 min 58 sec) 
 Total Blocks : 262144 Invalid Blocks : 0
Heartbeat CPU 2 instructions: 260000000 cycles: 429407769 heartbeat IPC: 0.180041 cumulative IPC: 0.18064 (Simulation time: 30 hr 11 min 4 sec) 
 Total Blocks : 262144 Invalid Blocks : 0
Heartbeat CPU 5 instructions: 260000000 cycles: 429791291 heartbeat IPC: 0.180123 cumulative IPC: 0.180458 (Simulation time: 30 hr 11 min 23 sec) 
 Total Blocks : 262144 Invalid Blocks : 0
Heartbeat CPU 7 instructions: 260000000 cycles: 430492097 heartbeat IPC: 0.179989 cumulative IPC: 0.180096 (Simulation time: 30 hr 12 min 19 sec) 
 Total Blocks : 262144 Invalid Blocks : 0
Heartbeat CPU 1 instructions: 270000000 cycles: 482787858 heartbeat IPC: 0.178874 cumulative IPC: 0.181557 (Simulation time: 30 hr 55 min 16 sec) 
 Total Blocks : 262144 Invalid Blocks : 0
Heartbeat CPU 4 instructions: 270000000 cycles: 482976176 heartbeat IPC: 0.178582 cumulative IPC: 0.181496 (Simulation time: 30 hr 55 min 26 sec) 
 Total Blocks : 262144 Invalid Blocks : 0
Heartbeat CPU 0 instructions: 270000000 cycles: 484185704 heartbeat IPC: 0.178576 cumulative IPC: 0.180893 (Simulation time: 30 hr 56 min 25 sec) 
 Total Blocks : 262144 Invalid Blocks : 0
Heartbeat CPU 3 instructions: 270000000 cycles: 484250464 heartbeat IPC: 0.178578 cumulative IPC: 0.18089 (Simulation time: 30 hr 56 min 28 sec) 
 Total Blocks : 262144 Invalid Blocks : 0
Heartbeat CPU 6 instructions: 270000000 cycles: 485219141 heartbeat IPC: 0.178718 cumulative IPC: 0.18046 (Simulation time: 30 hr 57 min 14 sec) 
 Total Blocks : 262144 Invalid Blocks : 0
Heartbeat CPU 2 instructions: 270000000 cycles: 485426358 heartbeat IPC: 0.178512 cumulative IPC: 0.180333 (Simulation time: 30 hr 57 min 24 sec) 
 Total Blocks : 262144 Invalid Blocks : 0
Heartbeat CPU 5 instructions: 270000000 cycles: 485866590 heartbeat IPC: 0.178332 cumulative IPC: 0.180151 (Simulation time: 30 hr 57 min 45 sec) 
 Total Blocks : 262144 Invalid Blocks : 0
Heartbeat CPU 7 instructions: 270000000 cycles: 486485263 heartbeat IPC: 0.178593 cumulative IPC: 0.17988 (Simulation time: 30 hr 58 min 15 sec) 
 Total Blocks : 262144 Invalid Blocks : 0
Heartbeat CPU 1 instructions: 280000002 cycles: 538861622 heartbeat IPC: 0.178337 cumulative IPC: 0.181148 (Simulation time: 31 hr 40 min 10 sec) 
 Total Blocks : 262144 Invalid Blocks : 0
Heartbeat CPU 4 instructions: 280000002 cycles: 539084099 heartbeat IPC: 0.178228 cumulative IPC: 0.181081 (Simulation time: 31 hr 40 min 21 sec) 
 Total Blocks : 262144 Invalid Blocks : 0
Heartbeat CPU 3 instructions: 280000002 cycles: 539713619 heartbeat IPC: 0.1803 cumulative IPC: 0.180816 (Simulation time: 31 hr 40 min 51 sec) 
 Total Blocks : 262144 Invalid Blocks : 0
Heartbeat CPU 0 instructions: 280000002 cycles: 539776629 heartbeat IPC: 0.179886 cumulative IPC: 0.180767 (Simulation time: 31 hr 40 min 54 sec) 
 Total Blocks : 262144 Invalid Blocks : 0
Heartbeat CPU 6 instructions: 280000002 cycles: 541340977 heartbeat IPC: 0.178184 cumulative IPC: 0.180172 (Simulation time: 31 hr 42 min 10 sec) 
 Total Blocks : 262144 Invalid Blocks : 0
Heartbeat CPU 2 instructions: 280000002 cycles: 541566651 heartbeat IPC: 0.178125 cumulative IPC: 0.180054 (Simulation time: 31 hr 42 min 21 sec) 
 Total Blocks : 262144 Invalid Blocks : 0
Heartbeat CPU 5 instructions: 280000002 cycles: 541920476 heartbeat IPC: 0.1784 cumulative IPC: 0.17993 (Simulation time: 31 hr 42 min 38 sec) 
 Total Blocks : 262144 Invalid Blocks : 0
Heartbeat CPU 7 instructions: 280000002 cycles: 542643921 heartbeat IPC: 0.178067 cumulative IPC: 0.179652 (Simulation time: 31 hr 43 min 13 sec) 
 Total Blocks : 262144 Invalid Blocks : 0
Heartbeat CPU 1 instructions: 290000002 cycles: 594250679 heartbeat IPC: 0.180541 cumulative IPC: 0.181081 (Simulation time: 32 hr 24 min 50 sec) 
 Total Blocks : 262144 Invalid Blocks : 0
Heartbeat CPU 4 instructions: 290000002 cycles: 594409487 heartbeat IPC: 0.180749 cumulative IPC: 0.181044 (Simulation time: 32 hr 24 min 58 sec) 
 Total Blocks : 262144 Invalid Blocks : 0
Heartbeat CPU 3 instructions: 290000002 cycles: 594653379 heartbeat IPC: 0.182018 cumulative IPC: 0.180949 (Simulation time: 32 hr 25 min 10 sec) 
 Total Blocks : 262144 Invalid Blocks : 0
Heartbeat CPU 0 instructions: 290000002 cycles: 594673915 heartbeat IPC: 0.182158 cumulative IPC: 0.18092 (Simulation time: 32 hr 25 min 11 sec) 
 Total Blocks : 262144 Invalid Blocks : 0
Heartbeat CPU 6 instructions: 290000002 cycles: 596702507 heartbeat IPC: 0.180631 cumulative IPC: 0.180223 (Simulation time: 32 hr 26 min 49 sec) 
 Total Blocks : 262144 Invalid Blocks : 0
Heartbeat CPU 2 instructions: 290000002 cycles: 596978413 heartbeat IPC: 0.180467 cumulative IPC: 0.180099 (Simulation time: 32 hr 27 min 2 sec) 
 Total Blocks : 262144 Invalid Blocks : 0
Heartbeat CPU 5 instructions: 290000002 cycles: 597233664 heartbeat IPC: 0.180789 cumulative IPC: 0.180025 (Simulation time: 32 hr 27 min 15 sec) 
 Total Blocks : 262144 Invalid Blocks : 0
Heartbeat CPU 7 instructions: 290000002 cycles: 598023062 heartbeat IPC: 0.180573 cumulative IPC: 0.179753 (Simulation time: 32 hr 27 min 53 sec) 
 Total Blocks : 262144 Invalid Blocks : 0
Heartbeat CPU 1 instructions: 300000000 cycles: 649455711 heartbeat IPC: 0.181143 cumulative IPC: 0.181087 (Simulation time: 33 hr 10 min 20 sec) 
 Total Blocks : 262144 Invalid Blocks : 0
Heartbeat CPU 3 instructions: 300000000 cycles: 649475829 heartbeat IPC: 0.182407 cumulative IPC: 0.181094 (Simulation time: 33 hr 10 min 21 sec) 
 Total Blocks : 262144 Invalid Blocks : 0
Heartbeat CPU 4 instructions: 300000000 cycles: 649885991 heartbeat IPC: 0.180256 cumulative IPC: 0.180965 (Simulation time: 33 hr 10 min 42 sec) 
 Total Blocks : 262144 Invalid Blocks : 0
Heartbeat CPU 0 instructions: 300000000 cycles: 650082856 heartbeat IPC: 0.180476 cumulative IPC: 0.180876 (Simulation time: 33 hr 10 min 51 sec) 
 Total Blocks : 262144 Invalid Blocks : 0
Heartbeat CPU 6 instructions: 300000000 cycles: 652515840 heartbeat IPC: 0.179169 cumulative IPC: 0.180117 (Simulation time: 33 hr 12 min 49 sec) 
 Total Blocks : 262144 Invalid Blocks : 0
Heartbeat CPU 2 instructions: 300000000 cycles: 652609828 heartbeat IPC: 0.179755 cumulative IPC: 0.180065 (Simulation time: 33 hr 12 min 53 sec) 
 Total Blocks : 262144 Invalid Blocks : 0
Heartbeat CPU 5 instructions: 300000000 cycles: 652928701 heartbeat IPC: 0.179549 cumulative IPC: 0.179977 (Simulation time: 33 hr 13 min 9 sec) 
 Total Blocks : 262144 Invalid Blocks : 0
Heartbeat CPU 7 instructions: 300000000 cycles: 653803642 heartbeat IPC: 0.179274 cumulative IPC: 0.179705 (Simulation time: 33 hr 13 min 52 sec) 
 Total Blocks : 262144 Invalid Blocks : 0
Heartbeat CPU 1 instructions: 310000003 cycles: 704490759 heartbeat IPC: 0.181702 cumulative IPC: 0.181143 (Simulation time: 33 hr 54 min 22 sec) 
 Total Blocks : 262144 Invalid Blocks : 0
Heartbeat CPU 3 instructions: 310000003 cycles: 704546225 heartbeat IPC: 0.181586 cumulative IPC: 0.181138 (Simulation time: 33 hr 54 min 25 sec) 
 Total Blocks : 262144 Invalid Blocks : 0
Heartbeat CPU 4 instructions: 310000003 cycles: 705873745 heartbeat IPC: 0.178611 cumulative IPC: 0.180748 (Simulation time: 33 hr 55 min 28 sec) 
 Total Blocks : 262144 Invalid Blocks : 0
Heartbeat CPU 0 instructions: 310000003 cycles: 706074460 heartbeat IPC: 0.178598 cumulative IPC: 0.180666 (Simulation time: 33 hr 55 min 38 sec) 
 Total Blocks : 262144 Invalid Blocks : 0
Heartbeat CPU 6 instructions: 310000003 cycles: 708479541 heartbeat IPC: 0.178687 cumulative IPC: 0.179986 (Simulation time: 33 hr 57 min 32 sec) 
 Total Blocks : 262144 Invalid Blocks : 0
Heartbeat CPU 2 instructions: 310000003 cycles: 708563799 heartbeat IPC: 0.178718 cumulative IPC: 0.179942 (Simulation time: 33 hr 57 min 36 sec) 
 Total Blocks : 262144 Invalid Blocks : 0
Heartbeat CPU 5 instructions: 310000003 cycles: 708862743 heartbeat IPC: 0.178782 cumulative IPC: 0.179868 (Simulation time: 33 hr 57 min 50 sec) 
 Total Blocks : 262144 Invalid Blocks : 0
Heartbeat CPU 7 instructions: 310000003 cycles: 709833168 heartbeat IPC: 0.178477 cumulative IPC: 0.179593 (Simulation time: 33 hr 58 min 37 sec) 
 Total Blocks : 262144 Invalid Blocks : 0
Heartbeat CPU 1 instructions: 320000002 cycles: 760299842 heartbeat IPC: 0.179182 cumulative IPC: 0.180978 (Simulation time: 34 hr 40 min 8 sec) 
 Total Blocks : 262144 Invalid Blocks : 0
Heartbeat CPU 3 instructions: 320000002 cycles: 760374184 heartbeat IPC: 0.179122 cumulative IPC: 0.180969 (Simulation time: 34 hr 40 min 12 sec) 
 Total Blocks : 262144 Invalid Blocks : 0
Heartbeat CPU 4 instructions: 320000002 cycles: 761646522 heartbeat IPC: 0.179299 cumulative IPC: 0.180627 (Simulation time: 34 hr 41 min 24 sec) 
 Total Blocks : 262144 Invalid Blocks : 0
Heartbeat CPU 0 instructions: 320000002 cycles: 761895423 heartbeat IPC: 0.179144 cumulative IPC: 0.180538 (Simulation time: 34 hr 41 min 40 sec) 
 Total Blocks : 262144 Invalid Blocks : 0
Heartbeat CPU 2 instructions: 320000002 cycles: 764106530 heartbeat IPC: 0.180042 cumulative IPC: 0.17995 (Simulation time: 34 hr 43 min 37 sec) 
 Total Blocks : 262144 Invalid Blocks : 0
Heartbeat CPU 6 instructions: 320000002 cycles: 764122832 heartbeat IPC: 0.179716 cumulative IPC: 0.179964 (Simulation time: 34 hr 43 min 38 sec) 
 Total Blocks : 262144 Invalid Blocks : 0
Heartbeat CPU 5 instructions: 320000002 cycles: 764685909 heartbeat IPC: 0.179137 cumulative IPC: 0.179807 (Simulation time: 34 hr 44 min 6 sec) 
 Total Blocks : 262144 Invalid Blocks : 0
Heartbeat CPU 7 instructions: 320000002 cycles: 765572587 heartbeat IPC: 0.179406 cumulative IPC: 0.179577 (Simulation time: 34 hr 44 min 56 sec) 
 Total Blocks : 262144 Invalid Blocks : 0
Heartbeat CPU 3 instructions: 330000000 cycles: 815201230 heartbeat IPC: 0.182392 cumulative IPC: 0.181077 (Simulation time: 35 hr 33 min 26 sec) 
 Total Blocks : 262144 Invalid Blocks : 0
Heartbeat CPU 1 instructions: 330000000 cycles: 815204313 heartbeat IPC: 0.182134 cumulative IPC: 0.181066 (Simulation time: 35 hr 33 min 26 sec) 
 Total Blocks : 262144 Invalid Blocks : 0
Heartbeat CPU 4 instructions: 330000000 cycles: 816874646 heartbeat IPC: 0.181067 cumulative IPC: 0.18066 (Simulation time: 35 hr 35 min 9 sec) 
 Total Blocks : 262144 Invalid Blocks : 0
Heartbeat CPU 0 instructions: 330000000 cycles: 817151560 heartbeat IPC: 0.180975 cumulative IPC: 0.180572 (Simulation time: 35 hr 35 min 24 sec) 
 Total Blocks : 262144 Invalid Blocks : 0
Heartbeat CPU 6 instructions: 330000000 cycles: 818556005 heartbeat IPC: 0.183711 cumulative IPC: 0.180246 (Simulation time: 35 hr 36 min 46 sec) 
 Total Blocks : 262144 Invalid Blocks : 0
Heartbeat CPU 2 instructions: 330000000 cycles: 818577928 heartbeat IPC: 0.183583 cumulative IPC: 0.180224 (Simulation time: 35 hr 36 min 47 sec) 
 Total Blocks : 262144 Invalid Blocks : 0
Heartbeat CPU 5 instructions: 330000000 cycles: 819868660 heartbeat IPC: 0.181216 cumulative IPC: 0.179915 (Simulation time: 35 hr 37 min 56 sec) 
 Total Blocks : 262144 Invalid Blocks : 0
Heartbeat CPU 7 instructions: 330000000 cycles: 820945257 heartbeat IPC: 0.180594 cumulative IPC: 0.179655 (Simulation time: 35 hr 38 min 59 sec) 
 Total Blocks : 262144 Invalid Blocks : 0
Heartbeat CPU 1 instructions: 340000001 cycles: 870044161 heartbeat IPC: 0.182349 cumulative IPC: 0.181157 (Simulation time: 36 hr 27 min 21 sec) 
 Total Blocks : 262144 Invalid Blocks : 0
Heartbeat CPU 3 instructions: 340000001 cycles: 870109780 heartbeat IPC: 0.182121 cumulative IPC: 0.181151 (Simulation time: 36 hr 27 min 24 sec) 
 Total Blocks : 262144 Invalid Blocks : 0
Heartbeat CPU 4 instructions: 340000001 cycles: 872596535 heartbeat IPC: 0.179463 cumulative IPC: 0.180574 (Simulation time: 36 hr 29 min 38 sec) 
 Total Blocks : 262144 Invalid Blocks : 0
Heartbeat CPU 0 instructions: 340000001 cycles: 872805486 heartbeat IPC: 0.179682 cumulative IPC: 0.180508 (Simulation time: 36 hr 29 min 48 sec) 
 Total Blocks : 262144 Invalid Blocks : 0
Heartbeat CPU 6 instructions: 340000001 cycles: 873447523 heartbeat IPC: 0.182178 cumulative IPC: 0.180383 (Simulation time: 36 hr 30 min 21 sec) 
 Total Blocks : 262144 Invalid Blocks : 0
Heartbeat CPU 2 instructions: 340000001 cycles: 873465850 heartbeat IPC: 0.182189 cumulative IPC: 0.180363 (Simulation time: 36 hr 30 min 21 sec) 
 Total Blocks : 262144 Invalid Blocks : 0
Heartbeat CPU 5 instructions: 340000001 cycles: 875636140 heartbeat IPC: 0.179316 cumulative IPC: 0.179872 (Simulation time: 36 hr 32 min 21 sec) 
 Total Blocks : 262144 Invalid Blocks : 0
Heartbeat CPU 7 instructions: 340000001 cycles: 876609429 heartbeat IPC: 0.179649 cumulative IPC: 0.179655 (Simulation time: 36 hr 33 min 10 sec) 
 Total Blocks : 262144 Invalid Blocks : 0
Heartbeat CPU 1 instructions: 350000003 cycles: 925639825 heartbeat IPC: 0.17987 cumulative IPC: 0.181071 (Simulation time: 37 hr 18 min 11 sec) 
 Total Blocks : 262144 Invalid Blocks : 0
Heartbeat CPU 3 instructions: 350000003 cycles: 925643858 heartbeat IPC: 0.18007 cumulative IPC: 0.181079 (Simulation time: 37 hr 18 min 11 sec) 
 Total Blocks : 262144 Invalid Blocks : 0
Heartbeat CPU 4 instructions: 350000003 cycles: 928729206 heartbeat IPC: 0.178149 cumulative IPC: 0.180411 (Simulation time: 37 hr 21 min 6 sec) 
 Total Blocks : 262144 Invalid Blocks : 0
Heartbeat CPU 0 instructions: 350000003 cycles: 928919648 heartbeat IPC: 0.178208 cumulative IPC: 0.180353 (Simulation time: 37 hr 21 min 16 sec) 
 Total Blocks : 262144 Invalid Blocks : 0
Heartbeat CPU 6 instructions: 350000003 cycles: 929316608 heartbeat IPC: 0.17899 cumulative IPC: 0.18029 (Simulation time: 37 hr 21 min 38 sec) 
 Total Blocks : 262144 Invalid Blocks : 0
Heartbeat CPU 2 instructions: 350000003 cycles: 929322866 heartbeat IPC: 0.179029 cumulative IPC: 0.180274 (Simulation time: 37 hr 21 min 38 sec) 
 Total Blocks : 262144 Invalid Blocks : 0
Heartbeat CPU 5 instructions: 350000003 cycles: 931630274 heartbeat IPC: 0.17859 cumulative IPC: 0.179786 (Simulation time: 37 hr 23 min 42 sec) 
 Total Blocks : 262144 Invalid Blocks : 0
Heartbeat CPU 7 instructions: 350000003 cycles: 932643056 heartbeat IPC: 0.178464 cumulative IPC: 0.179575 (Simulation time: 37 hr 24 min 40 sec) 
 Total Blocks : 262144 Invalid Blocks : 0
Heartbeat CPU 3 instructions: 360000001 cycles: 979916572 heartbeat IPC: 0.184255 cumulative IPC: 0.181274 (Simulation time: 38 hr 9 min 15 sec) 
 Total Blocks : 262144 Invalid Blocks : 0
Heartbeat CPU 1 instructions: 360000001 cycles: 979935285 heartbeat IPC: 0.184177 cumulative IPC: 0.181262 (Simulation time: 38 hr 9 min 16 sec) 
 Total Blocks : 262144 Invalid Blocks : 0
Heartbeat CPU 4 instructions: 360000001 cycles: 983975005 heartbeat IPC: 0.181009 cumulative IPC: 0.180448 (Simulation time: 38 hr 12 min 53 sec) 
 Total Blocks : 262144 Invalid Blocks : 0
Heartbeat CPU 2 instructions: 360000001 cycles: 984032373 heartbeat IPC: 0.182784 cumulative IPC: 0.180429 (Simulation time: 38 hr 12 min 56 sec) 
 Total Blocks : 262144 Invalid Blocks : 0
Heartbeat CPU 0 instructions: 360000001 cycles: 984085751 heartbeat IPC: 0.181271 cumulative IPC: 0.18041 (Simulation time: 38 hr 12 min 59 sec) 
 Total Blocks : 262144 Invalid Blocks : 0
Heartbeat CPU 6 instructions: 360000001 cycles: 984222258 heartbeat IPC: 0.182131 cumulative IPC: 0.180403 (Simulation time: 38 hr 13 min 7 sec) 
 Total Blocks : 262144 Invalid Blocks : 0
Heartbeat CPU 5 instructions: 360000001 cycles: 987067744 heartbeat IPC: 0.180383 cumulative IPC: 0.179823 (Simulation time: 38 hr 15 min 46 sec) 
 Total Blocks : 262144 Invalid Blocks : 0
Heartbeat CPU 7 instructions: 360000001 cycles: 987979196 heartbeat IPC: 0.180714 cumulative IPC: 0.179646 (Simulation time: 38 hr 16 min 35 sec) 
 Total Blocks : 262144 Invalid Blocks : 0
Heartbeat CPU 3 instructions: 370000003 cycles: 1034475396 heartbeat IPC: 0.183288 cumulative IPC: 0.181391 (Simulation time: 38 hr 58 min 44 sec) 
 Total Blocks : 262144 Invalid Blocks : 0
Heartbeat CPU 1 instructions: 370000003 cycles: 1034482543 heartbeat IPC: 0.183327 cumulative IPC: 0.181382 (Simulation time: 38 hr 58 min 44 sec) 
 Total Blocks : 262144 Invalid Blocks : 0
Heartbeat CPU 2 instructions: 370000003 cycles: 1038814241 heartbeat IPC: 0.182542 cumulative IPC: 0.180552 (Simulation time: 39 hr 2 min 56 sec) 
 Total Blocks : 262144 Invalid Blocks : 0
Heartbeat CPU 4 instructions: 370000003 cycles: 1038852120 heartbeat IPC: 0.182225 cumulative IPC: 0.180552 (Simulation time: 39 hr 2 min 58 sec) 
 Total Blocks : 262144 Invalid Blocks : 0
Heartbeat CPU 0 instructions: 370000003 cycles: 1039300513 heartbeat IPC: 0.181111 cumulative IPC: 0.180451 (Simulation time: 39 hr 3 min 36 sec) 
 Total Blocks : 262144 Invalid Blocks : 0
Heartbeat CPU 6 instructions: 370000003 cycles: 1039532399 heartbeat IPC: 0.180799 cumulative IPC: 0.180427 (Simulation time: 39 hr 3 min 49 sec) 
 Total Blocks : 262144 Invalid Blocks : 0
Heartbeat CPU 5 instructions: 370000003 cycles: 1042383291 heartbeat IPC: 0.180781 cumulative IPC: 0.179879 (Simulation time: 39 hr 6 min 35 sec) 
 Total Blocks : 262144 Invalid Blocks : 0
Heartbeat CPU 7 instructions: 370000003 cycles: 1043287582 heartbeat IPC: 0.180804 cumulative IPC: 0.179713 (Simulation time: 39 hr 7 min 29 sec) 
 Total Blocks : 262144 Invalid Blocks : 0
Heartbeat CPU 3 instructions: 380000001 cycles: 1089755934 heartbeat IPC: 0.180895 cumulative IPC: 0.181364 (Simulation time: 39 hr 46 min 44 sec) 
 Total Blocks : 262144 Invalid Blocks : 0
Heartbeat CPU 1 instructions: 380000001 cycles: 1089792173 heartbeat IPC: 0.1808 cumulative IPC: 0.18135 (Simulation time: 39 hr 46 min 46 sec) 
 Total Blocks : 262144 Invalid Blocks : 0
Heartbeat CPU 2 instructions: 380000001 cycles: 1094330462 heartbeat IPC: 0.180128 cumulative IPC: 0.180528 (Simulation time: 39 hr 50 min 35 sec) 
 Total Blocks : 262144 Invalid Blocks : 0
Heartbeat CPU 4 instructions: 380000001 cycles: 1094343922 heartbeat IPC: 0.180207 cumulative IPC: 0.180532 (Simulation time: 39 hr 50 min 35 sec) 
 Total Blocks : 262144 Invalid Blocks : 0
Heartbeat CPU 0 instructions: 380000001 cycles: 1095260029 heartbeat IPC: 0.178701 cumulative IPC: 0.180353 (Simulation time: 39 hr 51 min 21 sec) 
 Total Blocks : 262144 Invalid Blocks : 0
Heartbeat CPU 6 instructions: 380000001 cycles: 1095526680 heartbeat IPC: 0.17859 cumulative IPC: 0.180324 (Simulation time: 39 hr 51 min 35 sec) 
 Total Blocks : 262144 Invalid Blocks : 0
Heartbeat CPU 5 instructions: 380000001 cycles: 1098329191 heartbeat IPC: 0.178744 cumulative IPC: 0.179816 (Simulation time: 39 hr 53 min 55 sec) 
 Total Blocks : 262144 Invalid Blocks : 0
Heartbeat CPU 7 instructions: 380000001 cycles: 1099228715 heartbeat IPC: 0.178759 cumulative IPC: 0.17966 (Simulation time: 39 hr 54 min 41 sec) 
 Total Blocks : 262144 Invalid Blocks : 0
Heartbeat CPU 1 instructions: 390000001 cycles: 1144713546 heartbeat IPC: 0.182078 cumulative IPC: 0.181388 (Simulation time: 40 hr 32 min 49 sec) 
 Total Blocks : 262144 Invalid Blocks : 0
Heartbeat CPU 3 instructions: 390000001 cycles: 1144721056 heartbeat IPC: 0.181934 cumulative IPC: 0.181394 (Simulation time: 40 hr 32 min 49 sec) 
 Total Blocks : 262144 Invalid Blocks : 0
Heartbeat CPU 4 instructions: 390000001 cycles: 1149197096 heartbeat IPC: 0.182305 cumulative IPC: 0.180625 (Simulation time: 40 hr 36 min 37 sec) 
 Total Blocks : 262144 Invalid Blocks : 0
Heartbeat CPU 2 instructions: 390000001 cycles: 1149197644 heartbeat IPC: 0.182258 cumulative IPC: 0.180618 (Simulation time: 40 hr 36 min 37 sec) 
 Total Blocks : 262144 Invalid Blocks : 0
Heartbeat CPU 0 instructions: 390000001 cycles: 1150867665 heartbeat IPC: 0.179831 cumulative IPC: 0.180325 (Simulation time: 40 hr 38 min 2 sec) 
 Total Blocks : 262144 Invalid Blocks : 0
Heartbeat CPU 6 instructions: 390000001 cycles: 1151181641 heartbeat IPC: 0.179678 cumulative IPC: 0.18029 (Simulation time: 40 hr 38 min 18 sec) 
 Total Blocks : 262144 Invalid Blocks : 0
Heartbeat CPU 5 instructions: 390000001 cycles: 1154007000 heartbeat IPC: 0.179605 cumulative IPC: 0.179804 (Simulation time: 40 hr 40 min 42 sec) 
 Total Blocks : 262144 Invalid Blocks : 0
Heartbeat CPU 7 instructions: 390000001 cycles: 1154924238 heartbeat IPC: 0.179548 cumulative IPC: 0.179654 (Simulation time: 40 hr 41 min 28 sec) 
 Total Blocks : 262144 Invalid Blocks : 0
Heartbeat CPU 3 instructions: 400000002 cycles: 1199054561 heartbeat IPC: 0.184049 cumulative IPC: 0.181525 (Simulation time: 41 hr 18 min 29 sec) 
 Total Blocks : 262144 Invalid Blocks : 0
Heartbeat CPU 1 instructions: 400000002 cycles: 1199067620 heartbeat IPC: 0.183979 cumulative IPC: 0.181516 (Simulation time: 41 hr 18 min 30 sec) 
 Total Blocks : 262144 Invalid Blocks : 0
Finished CPU 3 instructions: 200000000 cycles: 1101778980 cumulative IPC: 0.181525 (Simulation time: 41 hr 18 min 32 sec) 
Finished CPU 1 instructions: 200000003 cycles: 1101828447 cumulative IPC: 0.181516 (Simulation time: 41 hr 18 min 35 sec) 
Heartbeat CPU 4 instructions: 400000002 cycles: 1203584333 heartbeat IPC: 0.183867 cumulative IPC: 0.180784 (Simulation time: 41 hr 22 min 17 sec) 
 Total Blocks : 262144 Invalid Blocks : 0
Heartbeat CPU 2 instructions: 400000002 cycles: 1203598768 heartbeat IPC: 0.18382 cumulative IPC: 0.180776 (Simulation time: 41 hr 22 min 18 sec) 
 Total Blocks : 262144 Invalid Blocks : 0
Finished CPU 4 instructions: 200000000 cycles: 1106290863 cumulative IPC: 0.180784 (Simulation time: 41 hr 22 min 19 sec) 
Finished CPU 2 instructions: 200000000 cycles: 1106346577 cumulative IPC: 0.180775 (Simulation time: 41 hr 22 min 22 sec) 
Heartbeat CPU 0 instructions: 400000002 cycles: 1206067654 heartbeat IPC: 0.181159 cumulative IPC: 0.180367 (Simulation time: 41 hr 24 min 24 sec) 
 Total Blocks : 262144 Invalid Blocks : 0
Finished CPU 0 instructions: 200000000 cycles: 1108853018 cumulative IPC: 0.180367 (Simulation time: 41 hr 24 min 30 sec) 
Heartbeat CPU 6 instructions: 400000002 cycles: 1206410718 heartbeat IPC: 0.181064 cumulative IPC: 0.180328 (Simulation time: 41 hr 24 min 42 sec) 
 Total Blocks : 262144 Invalid Blocks : 0
Finished CPU 6 instructions: 200000000 cycles: 1109089630 cumulative IPC: 0.180328 (Simulation time: 41 hr 24 min 42 sec) 
Heartbeat CPU 5 instructions: 400000002 cycles: 1209277174 heartbeat IPC: 0.180929 cumulative IPC: 0.17986 (Simulation time: 41 hr 27 min 9 sec) 
 Total Blocks : 262144 Invalid Blocks : 0
Finished CPU 5 instructions: 200000002 cycles: 1111975235 cumulative IPC: 0.17986 (Simulation time: 41 hr 27 min 11 sec) 
Heartbeat CPU 7 instructions: 400000002 cycles: 1210172793 heartbeat IPC: 0.181 cumulative IPC: 0.179721 (Simulation time: 41 hr 27 min 56 sec) 
 Total Blocks : 262144 Invalid Blocks : 0
Finished CPU 7 instructions: 200000001 cycles: 1112835418 cumulative IPC: 0.179721 (Simulation time: 41 hr 27 min 56 sec) 

CPU 0 Branch Prediction Accuracy: 99.1229% MPKI: 3.09855 Average ROB Occupancy at Mispredict: 145.938

CPU 1 Branch Prediction Accuracy: 99.1229% MPKI: 3.09854 Average ROB Occupancy at Mispredict: 145.936

CPU 2 Branch Prediction Accuracy: 99.1229% MPKI: 3.09864 Average ROB Occupancy at Mispredict: 145.937

CPU 3 Branch Prediction Accuracy: 99.1229% MPKI: 3.09869 Average ROB Occupancy at Mispredict: 145.936

CPU 4 Branch Prediction Accuracy: 99.1229% MPKI: 3.09872 Average ROB Occupancy at Mispredict: 145.937

CPU 5 Branch Prediction Accuracy: 99.1229% MPKI: 3.0989 Average ROB Occupancy at Mispredict: 145.934

CPU 6 Branch Prediction Accuracy: 99.1229% MPKI: 3.09884 Average ROB Occupancy at Mispredict: 145.938

CPU 7 Branch Prediction Accuracy: 99.1229% MPKI: 3.09892 Average ROB Occupancy at Mispredict: 145.936

ChampSim completed all CPUs

Total Simulation Statistics (not including warmup)

CPU 0 cumulative IPC: 0.180369 instructions: 200721148 cycles: 1112835418
ITLB TOTAL     ACCESS: 64882813  HIT: 64882808  MISS:     5  HIT %:   100  MISS %: 7.7062e-06  AVERAGE MISS PENALTY: 148.6
ITLB LOAD      ACCESS: 64882813  HIT: 64882808  MISS:     5  HIT %:   100  MISS %: 7.7062e-06  AVERAGE MISS PENALTY: 148.6
ITLB RFO       ACCESS:     0  HIT:     0  MISS:     0  HIT %:     0  MISS %:     0  AVERAGE MISS PENALTY: 0
ITLB PREFETCH  ACCESS:     0  HIT:     0  MISS:     0  HIT %:     0  MISS %:     0  AVERAGE MISS PENALTY: 0
ITLB WRITEBACK ACCESS:     0  HIT:     0  MISS:     0  HIT %:     0  MISS %:     0  AVERAGE MISS PENALTY: 0

DTLB TOTAL     ACCESS: 52213201  HIT: 51939099  MISS: 274102  HIT %: 99.475  MISS %: 0.524967  AVERAGE MISS PENALTY: 105.551
DTLB LOAD      ACCESS: 49301774  HIT: 49027767  MISS: 274007  HIT %: 99.4442  MISS %: 0.555775  AVERAGE MISS PENALTY: 105.552
DTLB RFO       ACCESS: 2911427  HIT: 2911332  MISS:    95  HIT %: 99.9967  MISS %: 0.003263  AVERAGE MISS PENALTY: 102.684
DTLB PREFETCH  ACCESS:     0  HIT:     0  MISS:     0  HIT %:     0  MISS %:     0  AVERAGE MISS PENALTY: 0
DTLB WRITEBACK ACCESS:     0  HIT:     0  MISS:     0  HIT %:     0  MISS %:     0  AVERAGE MISS PENALTY: 0

STLB TOTAL     ACCESS: 274107  HIT:  9723  MISS: 264384  HIT %: 3.54715  MISS %: 96.4528  AVERAGE MISS PENALTY: 100
STLB LOAD      ACCESS: 274012  HIT:  9717  MISS: 264295  HIT %: 3.5462  MISS %: 96.4538  AVERAGE MISS PENALTY: 100
STLB RFO       ACCESS:    95  HIT:     6  MISS:    89  HIT %: 6.31579  MISS %: 93.6842  AVERAGE MISS PENALTY: 100
STLB PREFETCH  ACCESS:     0  HIT:     0  MISS:     0  HIT %:     0  MISS %:     0  AVERAGE MISS PENALTY: 0
STLB WRITEBACK ACCESS:     0  HIT:     0  MISS:     0  HIT %:     0  MISS %:     0  AVERAGE MISS PENALTY: 0

L1D TOTAL     ACCESS: 61487903  HIT: 47010403  MISS: 14477500  HIT %: 76.4547  MISS %: 23.5453  AVERAGE MISS PENALTY: 2.59203e+08
L1D LOAD      ACCESS: 31864002  HIT: 25511539  MISS: 6352463  HIT %: 80.0638  MISS %: 19.9362  AVERAGE MISS PENALTY: 5.90718e+08
L1D RFO       ACCESS: 2930031  HIT: 2928325  MISS:  1706  HIT %: 99.9418  MISS %: 0.0582246  AVERAGE MISS PENALTY: 5.83943e+07
L1D PREFETCH  ACCESS: 26693870  HIT: 18570539  MISS: 8123331  HIT %: 69.5686  MISS %: 30.4314  AVERAGE MISS PENALTY: 217.685
L1D WRITEBACK ACCESS:     0  HIT:     0  MISS:     0  HIT %:     0  MISS %:     0  AVERAGE MISS PENALTY: 0

L1I TOTAL     ACCESS: 66243428  HIT: 66243402  MISS:    26  HIT %:   100  MISS %: 3.92492e-05  AVERAGE MISS PENALTY: 209.115
L1I LOAD      ACCESS: 66243428  HIT: 66243402  MISS:    26  HIT %:   100  MISS %: 3.92492e-05  AVERAGE MISS PENALTY: 209.115
L1I RFO       ACCESS:     0  HIT:     0  MISS:     0  HIT %:     0  MISS %:     0  AVERAGE MISS PENALTY: 0
L1I PREFETCH  ACCESS:     0  HIT:     0  MISS:     0  HIT %:     0  MISS %:     0  AVERAGE MISS PENALTY: 0
L1I WRITEBACK ACCESS:     0  HIT:     0  MISS:     0  HIT %:     0  MISS %:     0  AVERAGE MISS PENALTY: 0

L2C TOTAL     ACCESS: 16665208  HIT: 2112662  MISS: 14552546  HIT %: 12.6771  MISS %: 87.3229  AVERAGE MISS PENALTY: 1.88521e+08
L2C LOAD      ACCESS: 4725088  HIT: 197965  MISS: 4527123  HIT %: 4.18966  MISS %: 95.8103  AVERAGE MISS PENALTY: 6.06006e+08
L2C RFO       ACCESS:  1554  HIT:   959  MISS:   595  HIT %: 61.7117  MISS %: 38.2883  AVERAGE MISS PENALTY: 341.383
L2C PREFETCH  ACCESS: 11916052  HIT: 1892486  MISS: 10023566  HIT %: 15.8818  MISS %: 84.1182  AVERAGE MISS PENALTY: 296.435
L2C WRITEBACK ACCESS: 22514  HIT: 21252  MISS:  1262  HIT %: 94.3946  MISS %: 5.6054  AVERAGE MISS PENALTY: 0


LLC0 TOTAL     ACCESS: 1820662  HIT:  2866  MISS: 1817796  HIT %: 0.157415  MISS %: 99.8426  AVERAGE MISS PENALTY: 266.129
LLC0 LOAD      ACCESS: 230338  HIT:   241  MISS: 230097  HIT %: 0.104629  MISS %: 99.8954  AVERAGE MISS PENALTY: 262.139
LLC0 RFO       ACCESS:   131  HIT:     4  MISS:   127  HIT %: 3.05344  MISS %: 96.9466  AVERAGE MISS PENALTY: 318.441
LLC0 PREFETCH  ACCESS: 1587488  HIT:   837  MISS: 1586651  HIT %: 0.0527248  MISS %: 99.9473  AVERAGE MISS PENALTY: 266.858
LLC0 WRITEBACK ACCESS:  2705  HIT:  1784  MISS:   921  HIT %: 65.9519  MISS %: 34.0481  AVERAGE MISS PENALTY: 0

LLC1 TOTAL     ACCESS: 1821944  HIT:  2974  MISS: 1818970  HIT %: 0.163232  MISS %: 99.8368  AVERAGE MISS PENALTY: 278.792
LLC1 LOAD      ACCESS: 15390  HIT:   248  MISS: 15142  HIT %: 1.61144  MISS %: 98.3886  AVERAGE MISS PENALTY: 304.43
LLC1 RFO       ACCESS:    93  HIT:     6  MISS:    87  HIT %: 6.45161  MISS %: 93.5484  AVERAGE MISS PENALTY: 336.609
LLC1 PREFETCH  ACCESS: 1803650  HIT:   844  MISS: 1802806  HIT %: 0.046794  MISS %: 99.9532  AVERAGE MISS PENALTY: 278.718
LLC1 WRITEBACK ACCESS:  2811  HIT:  1876  MISS:   935  HIT %: 66.7378  MISS %: 33.2622  AVERAGE MISS PENALTY: 0

LLC2 TOTAL     ACCESS: 1822094  HIT:  2919  MISS: 1819175  HIT %: 0.1602  MISS %: 99.8398  AVERAGE MISS PENALTY: 265.677
LLC2 LOAD      ACCESS: 12227  HIT:   276  MISS: 11951  HIT %: 2.2573  MISS %: 97.7427  AVERAGE MISS PENALTY: 295.371
LLC2 RFO       ACCESS:    55  HIT:     0  MISS:    55  HIT %:     0  MISS %:   100  AVERAGE MISS PENALTY: 290.691
LLC2 PREFETCH  ACCESS: 1806985  HIT:   765  MISS: 1806220  HIT %: 0.0423357  MISS %: 99.9577  AVERAGE MISS PENALTY: 265.619
LLC2 WRITEBACK ACCESS:  2827  HIT:  1878  MISS:   949  HIT %: 66.4308  MISS %: 33.5692  AVERAGE MISS PENALTY: 0

LLC3 TOTAL     ACCESS: 1821927  HIT:  3293  MISS: 1818634  HIT %: 0.180743  MISS %: 99.8193  AVERAGE MISS PENALTY: 269.897
LLC3 LOAD      ACCESS: 12748  HIT:   413  MISS: 12335  HIT %: 3.23972  MISS %: 96.7603  AVERAGE MISS PENALTY: 308.63
LLC3 RFO       ACCESS:    88  HIT:     5  MISS:    83  HIT %: 5.68182  MISS %: 94.3182  AVERAGE MISS PENALTY: 348.494
LLC3 PREFETCH  ACCESS: 1806195  HIT:   964  MISS: 1805231  HIT %: 0.0533719  MISS %: 99.9466  AVERAGE MISS PENALTY: 269.776
LLC3 WRITEBACK ACCESS:  2896  HIT:  1911  MISS:   985  HIT %: 65.9876  MISS %: 34.0124  AVERAGE MISS PENALTY: 0

LLC4 TOTAL     ACCESS: 1821807  HIT:  3261  MISS: 1818546  HIT %: 0.178998  MISS %: 99.821  AVERAGE MISS PENALTY: 323.72
LLC4 LOAD      ACCESS: 12309  HIT:   307  MISS: 12002  HIT %: 2.49411  MISS %: 97.5059  AVERAGE MISS PENALTY: 297.982
LLC4 RFO       ACCESS:    63  HIT:     8  MISS:    55  HIT %: 12.6984  MISS %: 87.3016  AVERAGE MISS PENALTY: 282.255
LLC4 PREFETCH  ACCESS: 1806701  HIT:  1131  MISS: 1805570  HIT %: 0.0626003  MISS %: 99.9374  AVERAGE MISS PENALTY: 324.057
LLC4 WRITEBACK ACCESS:  2734  HIT:  1815  MISS:   919  HIT %: 66.3862  MISS %: 33.6138  AVERAGE MISS PENALTY: 0

LLC5 TOTAL     ACCESS: 1821949  HIT:  3035  MISS: 1818914  HIT %: 0.16658  MISS %: 99.8334  AVERAGE MISS PENALTY: 271.3
LLC5 LOAD      ACCESS: 12286  HIT:   254  MISS: 12032  HIT %: 2.06739  MISS %: 97.9326  AVERAGE MISS PENALTY: 299.584
LLC5 RFO       ACCESS:    65  HIT:    10  MISS:    55  HIT %: 15.3846  MISS %: 84.6154  AVERAGE MISS PENALTY: 372.291
LLC5 PREFETCH  ACCESS: 1806757  HIT:   913  MISS: 1805844  HIT %: 0.0505325  MISS %: 99.9495  AVERAGE MISS PENALTY: 271.256
LLC5 WRITEBACK ACCESS:  2841  HIT:  1858  MISS:   983  HIT %: 65.3995  MISS %: 34.6005  AVERAGE MISS PENALTY: 0

LLC6 TOTAL     ACCESS: 1821642  HIT:  3061  MISS: 1818581  HIT %: 0.168035  MISS %: 99.832  AVERAGE MISS PENALTY: 264.866
LLC6 LOAD      ACCESS: 12164  HIT:   320  MISS: 11844  HIT %: 2.63071  MISS %: 97.3693  AVERAGE MISS PENALTY: 299.664
LLC6 RFO       ACCESS:    65  HIT:     5  MISS:    60  HIT %: 7.69231  MISS %: 92.3077  AVERAGE MISS PENALTY: 290.4
LLC6 PREFETCH  ACCESS: 1806650  HIT:   893  MISS: 1805757  HIT %: 0.0494285  MISS %: 99.9506  AVERAGE MISS PENALTY: 264.772
LLC6 WRITEBACK ACCESS:  2763  HIT:  1843  MISS:   920  HIT %: 66.7029  MISS %: 33.2971  AVERAGE MISS PENALTY: 0

LLC7 TOTAL     ACCESS: 1821739  HIT:  2996  MISS: 1818743  HIT %: 0.164458  MISS %: 99.8355  AVERAGE MISS PENALTY: 262.169
LLC7 LOAD      ACCESS: 12263  HIT:   282  MISS: 11981  HIT %: 2.2996  MISS %: 97.7004  AVERAGE MISS PENALTY: 302.89
LLC7 RFO       ACCESS:    35  HIT:     0  MISS:    35  HIT %:     0  MISS %:   100  AVERAGE MISS PENALTY: 280.571
LLC7 PREFETCH  ACCESS: 1806538  HIT:   848  MISS: 1805690  HIT %: 0.0469406  MISS %: 99.9531  AVERAGE MISS PENALTY: 262.049
LLC7 WRITEBACK ACCESS:  2903  HIT:  1866  MISS:  1037  HIT %: 64.2783  MISS %: 35.7217  AVERAGE MISS PENALTY: 0

Total Rob stall cycles : 	1079307193
Total Load Rob Stall cycles : 	883552624
Average Rob Stall cycles : 	 11
Average Load Rob Stall cycles : 	 44

CPU 1 cumulative IPC: 0.181543 instructions: 202026980 cycles: 1112835418
ITLB TOTAL     ACCESS: 65303063  HIT: 65303058  MISS:     5  HIT %:   100  MISS %: 7.65661e-06  AVERAGE MISS PENALTY: 148.6
ITLB LOAD      ACCESS: 65303063  HIT: 65303058  MISS:     5  HIT %:   100  MISS %: 7.65661e-06  AVERAGE MISS PENALTY: 148.6
ITLB RFO       ACCESS:     0  HIT:     0  MISS:     0  HIT %:     0  MISS %:     0  AVERAGE MISS PENALTY: 0
ITLB PREFETCH  ACCESS:     0  HIT:     0  MISS:     0  HIT %:     0  MISS %:     0  AVERAGE MISS PENALTY: 0
ITLB WRITEBACK ACCESS:     0  HIT:     0  MISS:     0  HIT %:     0  MISS %:     0  AVERAGE MISS PENALTY: 0

DTLB TOTAL     ACCESS: 52554158  HIT: 52278478  MISS: 275680  HIT %: 99.4754  MISS %: 0.524564  AVERAGE MISS PENALTY: 105.561
DTLB LOAD      ACCESS: 49624106  HIT: 49348521  MISS: 275585  HIT %: 99.4447  MISS %: 0.555345  AVERAGE MISS PENALTY: 105.562
DTLB RFO       ACCESS: 2930052  HIT: 2929957  MISS:    95  HIT %: 99.9968  MISS %: 0.00324226  AVERAGE MISS PENALTY: 102.684
DTLB PREFETCH  ACCESS:     0  HIT:     0  MISS:     0  HIT %:     0  MISS %:     0  AVERAGE MISS PENALTY: 0
DTLB WRITEBACK ACCESS:     0  HIT:     0  MISS:     0  HIT %:     0  MISS %:     0  AVERAGE MISS PENALTY: 0

STLB TOTAL     ACCESS: 275685  HIT:  9742  MISS: 265943  HIT %: 3.53374  MISS %: 96.4663  AVERAGE MISS PENALTY: 100
STLB LOAD      ACCESS: 275590  HIT:  9736  MISS: 265854  HIT %: 3.53278  MISS %: 96.4672  AVERAGE MISS PENALTY: 100
STLB RFO       ACCESS:    95  HIT:     6  MISS:    89  HIT %: 6.31579  MISS %: 93.6842  AVERAGE MISS PENALTY: 100
STLB PREFETCH  ACCESS:     0  HIT:     0  MISS:     0  HIT %:     0  MISS %:     0  AVERAGE MISS PENALTY: 0
STLB WRITEBACK ACCESS:     0  HIT:     0  MISS:     0  HIT %:     0  MISS %:     0  AVERAGE MISS PENALTY: 0

L1D TOTAL     ACCESS: 61885386  HIT: 47314348  MISS: 14571038  HIT %: 76.4548  MISS %: 23.5452  AVERAGE MISS PENALTY: 2.60277e+08
L1D LOAD      ACCESS: 32063676  HIT: 25662127  MISS: 6401549  HIT %: 80.0349  MISS %: 19.9651  AVERAGE MISS PENALTY: 5.92419e+08
L1D RFO       ACCESS: 2948658  HIT: 2946937  MISS:  1721  HIT %: 99.9416  MISS %: 0.0583655  AVERAGE MISS PENALTY: 6.36849e+07
L1D PREFETCH  ACCESS: 26873052  HIT: 18705284  MISS: 8167768  HIT %: 69.6061  MISS %: 30.3939  AVERAGE MISS PENALTY: 239.509
L1D WRITEBACK ACCESS:     0  HIT:     0  MISS:     0  HIT %:     0  MISS %:     0  AVERAGE MISS PENALTY: 0

L1I TOTAL     ACCESS: 66671967  HIT: 66671941  MISS:    26  HIT %:   100  MISS %: 3.89969e-05  AVERAGE MISS PENALTY: 238.038
L1I LOAD      ACCESS: 66671967  HIT: 66671941  MISS:    26  HIT %:   100  MISS %: 3.89969e-05  AVERAGE MISS PENALTY: 238.038
L1I RFO       ACCESS:     0  HIT:     0  MISS:     0  HIT %:     0  MISS %:     0  AVERAGE MISS PENALTY: 0
L1I PREFETCH  ACCESS:     0  HIT:     0  MISS:     0  HIT %:     0  MISS %:     0  AVERAGE MISS PENALTY: 0
L1I WRITEBACK ACCESS:     0  HIT:     0  MISS:     0  HIT %:     0  MISS %:     0  AVERAGE MISS PENALTY: 0

L2C TOTAL     ACCESS: 16808225  HIT: 2163062  MISS: 14645163  HIT %: 12.8691  MISS %: 87.1309  AVERAGE MISS PENALTY: 1.90633e+08
L2C LOAD      ACCESS: 4783458  HIT: 200136  MISS: 4583322  HIT %: 4.18392  MISS %: 95.8161  AVERAGE MISS PENALTY: 6.09131e+08
L2C RFO       ACCESS:  1553  HIT:   991  MISS:   562  HIT %: 63.812  MISS %: 36.188  AVERAGE MISS PENALTY: 346.544
L2C PREFETCH  ACCESS: 12000566  HIT: 1940350  MISS: 10060216  HIT %: 16.1688  MISS %: 83.8312  AVERAGE MISS PENALTY: 303.677
L2C WRITEBACK ACCESS: 22648  HIT: 21585  MISS:  1063  HIT %: 95.3064  MISS %: 4.69357  AVERAGE MISS PENALTY: 0


LLC0 TOTAL     ACCESS: 1832193  HIT:  2698  MISS: 1829495  HIT %: 0.147255  MISS %: 99.8527  AVERAGE MISS PENALTY: 263.087
LLC0 LOAD      ACCESS: 231833  HIT:   250  MISS: 231583  HIT %: 0.107836  MISS %: 99.8922  AVERAGE MISS PENALTY: 258.562
LLC0 RFO       ACCESS:   132  HIT:     5  MISS:   127  HIT %: 3.78788  MISS %: 96.2121  AVERAGE MISS PENALTY: 294.283
LLC0 PREFETCH  ACCESS: 1597509  HIT:   781  MISS: 1596728  HIT %: 0.0488886  MISS %: 99.9511  AVERAGE MISS PENALTY: 263.915
LLC0 WRITEBACK ACCESS:  2719  HIT:  1662  MISS:  1057  HIT %: 61.1254  MISS %: 38.8746  AVERAGE MISS PENALTY: 0

LLC1 TOTAL     ACCESS: 1833492  HIT:  2798  MISS: 1830694  HIT %: 0.152605  MISS %: 99.8474  AVERAGE MISS PENALTY: 275.155
LLC1 LOAD      ACCESS: 15423  HIT:   239  MISS: 15184  HIT %: 1.54963  MISS %: 98.4504  AVERAGE MISS PENALTY: 302.044
LLC1 RFO       ACCESS:    86  HIT:     0  MISS:    86  HIT %:     0  MISS %:   100  AVERAGE MISS PENALTY: 289.942
LLC1 PREFETCH  ACCESS: 1815154  HIT:   792  MISS: 1814362  HIT %: 0.0436327  MISS %: 99.9564  AVERAGE MISS PENALTY: 275.09
LLC1 WRITEBACK ACCESS:  2829  HIT:  1767  MISS:  1062  HIT %: 62.4602  MISS %: 37.5398  AVERAGE MISS PENALTY: 0

LLC2 TOTAL     ACCESS: 1833768  HIT:  2778  MISS: 1830990  HIT %: 0.151491  MISS %: 99.8485  AVERAGE MISS PENALTY: 316.938
LLC2 LOAD      ACCESS: 12234  HIT:   231  MISS: 12003  HIT %: 1.88818  MISS %: 98.1118  AVERAGE MISS PENALTY: 292.687
LLC2 RFO       ACCESS:    55  HIT:     0  MISS:    55  HIT %:     0  MISS %:   100  AVERAGE MISS PENALTY: 268.036
LLC2 PREFETCH  ACCESS: 1818637  HIT:   788  MISS: 1817849  HIT %: 0.0433292  MISS %: 99.9567  AVERAGE MISS PENALTY: 317.289
LLC2 WRITEBACK ACCESS:  2842  HIT:  1759  MISS:  1083  HIT %: 61.893  MISS %: 38.107  AVERAGE MISS PENALTY: 0

LLC3 TOTAL     ACCESS: 1833596  HIT:  3053  MISS: 1830543  HIT %: 0.166503  MISS %: 99.8335  AVERAGE MISS PENALTY: 267.709
LLC3 LOAD      ACCESS: 12684  HIT:   326  MISS: 12358  HIT %: 2.57017  MISS %: 97.4298  AVERAGE MISS PENALTY: 305.893
LLC3 RFO       ACCESS:    83  HIT:     0  MISS:    83  HIT %:     0  MISS %:   100  AVERAGE MISS PENALTY: 329.542
[...]
LLC2 TOTAL     ACCESS: 1815520  HIT:  2798  MISS: 1812722  HIT %: 0.154116  MISS %: 99.8459  AVERAGE MISS PENALTY: 265.834
LLC2 LOAD      ACCESS: 12165  HIT:   243  MISS: 11922  HIT %: 1.99753  MISS %: 98.0025  AVERAGE MISS PENALTY: 297.353
LLC2 RFO       ACCESS:    55  HIT:     0  MISS:    55  HIT %:     0  MISS %:   100  AVERAGE MISS PENALTY: 299.964
LLC2 PREFETCH  ACCESS: 1800477  HIT:   812  MISS: 1799665  HIT %: 0.0450992  MISS %: 99.9549  AVERAGE MISS PENALTY: 265.784
LLC2 WRITEBACK ACCESS:  2823  HIT:  1743  MISS:  1080  HIT %: 61.7428  MISS %: 38.2572  AVERAGE MISS PENALTY: 0
LLC2 PREFETCH  REQUESTED:     0  ISSUED:     0  USEFUL:  1122  USELESS: 14467949
 USEFUL LOAD PREFETCHES:       1122 PREFETCH ISSUED TO LOWER LEVEL:   14469123  ACCURACY: 0.00775444
 TIMELY PREFETCHES:       1122 LATE PREFETCHES: 0 DROPPED PREFETCHES: 0
LLC2 AVERAGE MISS LATENCY: 265.834 cycles
LLC3 TOTAL     ACCESS: 1815392  HIT:  3099  MISS: 1812293  HIT %: 0.170707  MISS %: 99.8293  AVERAGE MISS PENALTY: 269.915
LLC3 LOAD      ACCESS: 12614  HIT:   334  MISS: 12280  HIT %: 2.64785  MISS %: 97.3521  AVERAGE MISS PENALTY: 308.5
LLC3 RFO       ACCESS:    88  HIT:     5  MISS:    83  HIT %: 5.68182  MISS %: 94.3182  AVERAGE MISS PENALTY: 303.482
LLC3 PREFETCH  ACCESS: 1799799  HIT:   972  MISS: 1798827  HIT %: 0.054006  MISS %: 99.946  AVERAGE MISS PENALTY: 269.816
LLC3 WRITEBACK ACCESS:  2891  HIT:  1788  MISS:  1103  HIT %: 61.8471  MISS %: 38.1529  AVERAGE MISS PENALTY: 0
LLC3 PREFETCH  REQUESTED:     0  ISSUED:     0  USEFUL:   972  USELESS: 14461016
 USEFUL LOAD PREFETCHES:        972 PREFETCH ISSUED TO LOWER LEVEL:   14462072  ACCURACY: 0.00672103
 TIMELY PREFETCHES:        972 LATE PREFETCHES: 0 DROPPED PREFETCHES: 0
LLC3 AVERAGE MISS LATENCY: 269.915 cycles
LLC4 TOTAL     ACCESS: 1815277  HIT:  3035  MISS: 1812242  HIT %: 0.167192  MISS %: 99.8328  AVERAGE MISS PENALTY: 270.26
LLC4 LOAD      ACCESS: 12234  HIT:   256  MISS: 11978  HIT %: 2.09253  MISS %: 97.9075  AVERAGE MISS PENALTY: 298.925
LLC4 RFO       ACCESS:    52  HIT:     0  MISS:    52  HIT %:     0  MISS %:   100  AVERAGE MISS PENALTY: 291.923
LLC4 PREFETCH  ACCESS: 1800265  HIT:  1132  MISS: 1799133  HIT %: 0.0628796  MISS %: 99.9371  AVERAGE MISS PENALTY: 270.231
LLC4 WRITEBACK ACCESS:  2726  HIT:  1647  MISS:  1079  HIT %: 60.4182  MISS %: 39.5818  AVERAGE MISS PENALTY: 0
LLC4 PREFETCH  REQUESTED:     0  ISSUED:     0  USEFUL:  1158  USELESS: 14463465
 USEFUL LOAD PREFETCHES:       1158 PREFETCH ISSUED TO LOWER LEVEL:   14464667  ACCURACY: 0.00800571
 TIMELY PREFETCHES:       1158 LATE PREFETCHES: 0 DROPPED PREFETCHES: 0
LLC4 AVERAGE MISS LATENCY: 270.26 cycles
LLC5 TOTAL     ACCESS: 1815341  HIT:  2919  MISS: 1812422  HIT %: 0.160796  MISS %: 99.8392  AVERAGE MISS PENALTY: 271.253
LLC5 LOAD      ACCESS: 12217  HIT:   216  MISS: 12001  HIT %: 1.76803  MISS %: 98.232  AVERAGE MISS PENALTY: 298.426
LLC5 RFO       ACCESS:    60  HIT:     4  MISS:    56  HIT %: 6.66667  MISS %: 93.3333  AVERAGE MISS PENALTY: 338.393
LLC5 PREFETCH  ACCESS: 1800237  HIT:   902  MISS: 1799335  HIT %: 0.0501045  MISS %: 99.9499  AVERAGE MISS PENALTY: 271.225
LLC5 WRITEBACK ACCESS:  2827  HIT:  1797  MISS:  1030  HIT %: 63.5656  MISS %: 36.4344  AVERAGE MISS PENALTY: 0
LLC5 PREFETCH  REQUESTED:     0  ISSUED:     0  USEFUL:   950  USELESS: 14465443
 USEFUL LOAD PREFETCHES:        950 PREFETCH ISSUED TO LOWER LEVEL:   14466436  ACCURACY: 0.00656692
 TIMELY PREFETCHES:        950 LATE PREFETCHES: 0 DROPPED PREFETCHES: 0
LLC5 AVERAGE MISS LATENCY: 271.253 cycles
LLC6 TOTAL     ACCESS: 1815120  HIT:  2848  MISS: 1812272  HIT %: 0.156904  MISS %: 99.8431  AVERAGE MISS PENALTY: 264.884
LLC6 LOAD      ACCESS: 12113  HIT:   282  MISS: 11831  HIT %: 2.32808  MISS %: 97.6719  AVERAGE MISS PENALTY: 300.737
LLC6 RFO       ACCESS:    59  HIT:     0  MISS:    59  HIT %:     0  MISS %:   100  AVERAGE MISS PENALTY: 301.763
LLC6 PREFETCH  ACCESS: 1800189  HIT:   880  MISS: 1799309  HIT %: 0.0488838  MISS %: 99.9511  AVERAGE MISS PENALTY: 264.805
LLC6 WRITEBACK ACCESS:  2759  HIT:  1686  MISS:  1073  HIT %: 61.1091  MISS %: 38.8909  AVERAGE MISS PENALTY: 0
LLC6 PREFETCH  REQUESTED:     0  ISSUED:     0  USEFUL:  1188  USELESS: 14464504
 USEFUL LOAD PREFETCHES:       1188 PREFETCH ISSUED TO LOWER LEVEL:   14465741  ACCURACY: 0.00821251
 TIMELY PREFETCHES:       1188 LATE PREFETCHES: 0 DROPPED PREFETCHES: 0
LLC6 AVERAGE MISS LATENCY: 264.884 cycles
LLC7 TOTAL     ACCESS: 1815258  HIT:  2876  MISS: 1812382  HIT %: 0.158435  MISS %: 99.8416  AVERAGE MISS PENALTY: 262.236
LLC7 LOAD      ACCESS: 12191  HIT:   218  MISS: 11973  HIT %: 1.7882  MISS %: 98.2118  AVERAGE MISS PENALTY: 302.884
LLC7 RFO       ACCESS:    40  HIT:     4  MISS:    36  HIT %:    10  MISS %:    90  AVERAGE MISS PENALTY: 318.528
LLC7 PREFETCH  ACCESS: 1800132  HIT:   869  MISS: 1799263  HIT %: 0.0482742  MISS %: 99.9517  AVERAGE MISS PENALTY: 262.126
LLC7 WRITEBACK ACCESS:  2895  HIT:  1785  MISS:  1110  HIT %: 61.658  MISS %: 38.342  AVERAGE MISS PENALTY: 0
LLC7 PREFETCH  REQUESTED:     0  ISSUED:     0  USEFUL:  1233  USELESS: 14463624
 USEFUL LOAD PREFETCHES:       1233 PREFETCH ISSUED TO LOWER LEVEL:   14464898  ACCURACY: 0.00852408
 TIMELY PREFETCHES:       1233 LATE PREFETCHES: 0 DROPPED PREFETCHES: 0
LLC7 AVERAGE MISS LATENCY: 262.236 cycles
ROI Average ROB Stall Cycles:	11.4782
ROI Total ROB Stalls Cycles:	1075684338
ROI TOTAL ROB counter      :	93715482
ROI Average Load ROB Stall Cycles:	44.5021
ROI Total Load ROB Stalls Cycle  :	880677869
ROI Total Load ROB stalls Counter:	19789572
Major fault: 0 Minor fault: 48355

CPU 7 cumulative IPC: 0.179721 instructions: 200000001 cycles: 1112835418
ITLB TOTAL     ACCESS: 64648700  HIT: 64648695  MISS:     5  HIT %:   100  MISS %: 7.73411e-06  AVERAGE MISS PENALTY: 148.6
ITLB LOAD      ACCESS: 64648700  HIT: 64648695  MISS:     5  HIT %:   100  MISS %: 7.73411e-06  AVERAGE MISS PENALTY: 148.6
ITLB RFO       ACCESS:     0  HIT:     0  MISS:     0  HIT %:     0  MISS %:     0  AVERAGE MISS PENALTY: 0
ITLB PREFETCH  ACCESS:     0  HIT:     0  MISS:     0  HIT %:     0  MISS %:     0  AVERAGE MISS PENALTY: 0
ITLB WRITEBACK ACCESS:     0  HIT:     0  MISS:     0  HIT %:     0  MISS %:     0  AVERAGE MISS PENALTY: 0
ITLB PREFETCH  REQUESTED:     0  ISSUED:     0  USEFUL:     0  USELESS:     0
 USEFUL LOAD PREFETCHES:          0 PREFETCH ISSUED TO LOWER LEVEL:          0  ACCURACY: -nan
 TIMELY PREFETCHES:          0 LATE PREFETCHES: 0 DROPPED PREFETCHES: 0
ITLB AVERAGE MISS LATENCY: 148.6 cycles
DTLB TOTAL     ACCESS: 52024627  HIT: 51751422  MISS: 273205  HIT %: 99.4749  MISS %: 0.525146  AVERAGE MISS PENALTY: 105.541
DTLB LOAD      ACCESS: 49123566  HIT: 48850456  MISS: 273110  HIT %: 99.444  MISS %: 0.555965  AVERAGE MISS PENALTY: 105.542
DTLB RFO       ACCESS: 2901061  HIT: 2900966  MISS:    95  HIT %: 99.9967  MISS %: 0.00327466  AVERAGE MISS PENALTY: 102.684
DTLB PREFETCH  ACCESS:     0  HIT:     0  MISS:     0  HIT %:     0  MISS %:     0  AVERAGE MISS PENALTY: 0
DTLB WRITEBACK ACCESS:     0  HIT:     0  MISS:     0  HIT %:     0  MISS %:     0  AVERAGE MISS PENALTY: 0
DTLB PREFETCH  REQUESTED:     0  ISSUED:     0  USEFUL:     0  USELESS:     0
 USEFUL LOAD PREFETCHES:          0 PREFETCH ISSUED TO LOWER LEVEL:          0  ACCURACY: -nan
 TIMELY PREFETCHES:          0 LATE PREFETCHES: 0 DROPPED PREFETCHES: 0
DTLB AVERAGE MISS LATENCY: 105.541 cycles
STLB TOTAL     ACCESS: 273210  HIT:  9712  MISS: 263498  HIT %: 3.55477  MISS %: 96.4452  AVERAGE MISS PENALTY: 100
STLB LOAD      ACCESS: 273115  HIT:  9706  MISS: 263409  HIT %: 3.55381  MISS %: 96.4462  AVERAGE MISS PENALTY: 100
STLB RFO       ACCESS:    95  HIT:     6  MISS:    89  HIT %: 6.31579  MISS %: 93.6842  AVERAGE MISS PENALTY: 100
STLB PREFETCH  ACCESS:     0  HIT:     0  MISS:     0  HIT %:     0  MISS %:     0  AVERAGE MISS PENALTY: 0
STLB WRITEBACK ACCESS:     0  HIT:     0  MISS:     0  HIT %:     0  MISS %:     0  AVERAGE MISS PENALTY: 0
STLB PREFETCH  REQUESTED:     0  ISSUED:     0  USEFUL:     0  USELESS:     0
 USEFUL LOAD PREFETCHES:          0 PREFETCH ISSUED TO LOWER LEVEL:          0  ACCURACY: -nan
 TIMELY PREFETCHES:          0 LATE PREFETCHES: 0 DROPPED PREFETCHES: 0
STLB AVERAGE MISS LATENCY: 100 cycles
L1D TOTAL     ACCESS: 61233466  HIT: 46807820  MISS: 14425646  HIT %: 76.4416  MISS %: 23.5584  AVERAGE MISS PENALTY: 2.59611e+08
L1D LOAD      ACCESS: 31752369  HIT: 25421551  MISS: 6330818  HIT %: 80.0619  MISS %: 19.9381  AVERAGE MISS PENALTY: 5.91544e+08
L1D RFO       ACCESS: 2919677  HIT: 2917968  MISS:  1709  HIT %: 99.9415  MISS %: 0.0585339  AVERAGE MISS PENALTY: 5.6869e+07
L1D PREFETCH  ACCESS: 26561420  HIT: 18468301  MISS: 8093119  HIT %: 69.5305  MISS %: 30.4695  AVERAGE MISS PENALTY: 218.96
L1D WRITEBACK ACCESS:     0  HIT:     0  MISS:     0  HIT %:     0  MISS %:     0  AVERAGE MISS PENALTY: 0
L1D PREFETCH  REQUESTED: 82856705  ISSUED: 82849873  USEFUL: 7685456  USELESS: 407674
 USEFUL LOAD PREFETCHES:    7685456 PREFETCH ISSUED TO LOWER LEVEL:   49823808  ACCURACY: 15.4253
 TIMELY PREFETCHES:    7685456 LATE PREFETCHES: 7914743 DROPPED PREFETCHES: 6832
L1D AVERAGE MISS LATENCY: 6912.75 cycles
L1I TOTAL     ACCESS: 66004734  HIT: 66004708  MISS:    26  HIT %:   100  MISS %: 3.93911e-05  AVERAGE MISS PENALTY: 264.692
L1I LOAD      ACCESS: 66004734  HIT: 66004708  MISS:    26  HIT %:   100  MISS %: 3.93911e-05  AVERAGE MISS PENALTY: 264.692
L1I RFO       ACCESS:     0  HIT:     0  MISS:     0  HIT %:     0  MISS %:     0  AVERAGE MISS PENALTY: 0
L1I PREFETCH  ACCESS:     0  HIT:     0  MISS:     0  HIT %:     0  MISS %:     0  AVERAGE MISS PENALTY: 0
L1I WRITEBACK ACCESS:     0  HIT:     0  MISS:     0  HIT %:     0  MISS %:     0  AVERAGE MISS PENALTY: 0
L1I PREFETCH  REQUESTED:     0  ISSUED:     0  USEFUL:     0  USELESS:     0
 USEFUL LOAD PREFETCHES:          0 PREFETCH ISSUED TO LOWER LEVEL:          0  ACCURACY: -nan
 TIMELY PREFETCHES:          0 LATE PREFETCHES: 0 DROPPED PREFETCHES: 0
L1I AVERAGE MISS LATENCY: 264.692 cycles
L2C TOTAL     ACCESS: 16586373  HIT: 2088014  MISS: 14498359  HIT %: 12.5887  MISS %: 87.4113  AVERAGE MISS PENALTY: 1.88502e+08
L2C LOAD      ACCESS: 4696381  HIT: 198623  MISS: 4497758  HIT %: 4.22928  MISS %: 95.7707  AVERAGE MISS PENALTY: 6.07629e+08
L2C RFO       ACCESS:  1561  HIT:   996  MISS:   565  HIT %: 63.8053  MISS %: 36.1947  AVERAGE MISS PENALTY: 350.958
L2C PREFETCH  ACCESS: 11866002  HIT: 1867013  MISS: 9998989  HIT %: 15.7341  MISS %: 84.2659  AVERAGE MISS PENALTY: 288.191
L2C WRITEBACK ACCESS: 22429  HIT: 21382  MISS:  1047  HIT %: 95.3319  MISS %: 4.66806  AVERAGE MISS PENALTY: 0
L2C PREFETCH  REQUESTED: 20000208  ISSUED: 20000205  USEFUL: 194678  USELESS: 9806648
 USEFUL LOAD PREFETCHES:     194678 PREFETCH ISSUED TO LOWER LEVEL:   28620110  ACCURACY: 0.680214
 TIMELY PREFETCHES:     194678 LATE PREFETCHES: 4185127 DROPPED PREFETCHES: 3
L2C AVERAGE MISS LATENCY: 246.264 cycles
LLC0 TOTAL     ACCESS: 1813868  HIT:  2463  MISS: 1811405  HIT %: 0.135787  MISS %: 99.8642  AVERAGE MISS PENALTY: 267.799
LLC0 LOAD      ACCESS: 229520  HIT:   225  MISS: 229295  HIT %: 0.0980307  MISS %: 99.902  AVERAGE MISS PENALTY: 263.307
LLC0 RFO       ACCESS:   126  HIT:     0  MISS:   126  HIT %:     0  MISS %:   100  AVERAGE MISS PENALTY: 311.5
LLC0 PREFETCH  ACCESS: 1581525  HIT:   662  MISS: 1580863  HIT %: 0.0418583  MISS %: 99.9581  AVERAGE MISS PENALTY: 268.637
LLC0 WRITEBACK ACCESS:  2697  HIT:  1576  MISS:  1121  HIT %: 58.4353  MISS %: 41.5647  AVERAGE MISS PENALTY: 0
LLC0 PREFETCH  REQUESTED:     0  ISSUED:     0  USEFUL:  1098  USELESS: 12708880
 USEFUL LOAD PREFETCHES:       1098 PREFETCH ISSUED TO LOWER LEVEL:   12709829  ACCURACY: 0.00863898
 TIMELY PREFETCHES:       1098 LATE PREFETCHES: 0 DROPPED PREFETCHES: 0
LLC0 AVERAGE MISS LATENCY: 267.799 cycles
Deadblocks : 1843132 Deadblock percentage : 803.826

LLC1 TOTAL     ACCESS: 1815228  HIT:  2625  MISS: 1812603  HIT %: 0.14461  MISS %: 99.8554  AVERAGE MISS PENALTY: 280.857
LLC1 LOAD      ACCESS: 15391  HIT:   206  MISS: 15185  HIT %: 1.33844  MISS %: 98.6616  AVERAGE MISS PENALTY: 307.412
LLC1 RFO       ACCESS:    90  HIT:     0  MISS:    90  HIT %:     0  MISS %:   100  AVERAGE MISS PENALTY: 344.378
LLC1 PREFETCH  ACCESS: 1796946  HIT:   723  MISS: 1796223  HIT %: 0.0402349  MISS %: 99.9598  AVERAGE MISS PENALTY: 280.802
LLC1 WRITEBACK ACCESS:  2801  HIT:  1696  MISS:  1105  HIT %: 60.5498  MISS %: 39.4502  AVERAGE MISS PENALTY: 0
LLC1 PREFETCH  REQUESTED:     0  ISSUED:     0  USEFUL:  1214  USELESS: 14440179
 USEFUL LOAD PREFETCHES:       1214 PREFETCH ISSUED TO LOWER LEVEL:   14441420  ACCURACY: 0.00840638
 TIMELY PREFETCHES:       1214 LATE PREFETCHES: 0 DROPPED PREFETCHES: 0
LLC1 AVERAGE MISS LATENCY: 280.857 cycles
LLC2 TOTAL     ACCESS: 1815379  HIT:  2667  MISS: 1812712  HIT %: 0.146911  MISS %: 99.8531  AVERAGE MISS PENALTY: 266.705
LLC2 LOAD      ACCESS: 12113  HIT:   208  MISS: 11905  HIT %: 1.71716  MISS %: 98.2828  AVERAGE MISS PENALTY: 298.41
LLC2 RFO       ACCESS:    55  HIT:     0  MISS:    55  HIT %:     0  MISS %:   100  AVERAGE MISS PENALTY: 269.255
LLC2 PREFETCH  ACCESS: 1800390  HIT:   762  MISS: 1799628  HIT %: 0.0423242  MISS %: 99.9577  AVERAGE MISS PENALTY: 266.662
LLC2 WRITEBACK ACCESS:  2821  HIT:  1697  MISS:  1124  HIT %: 60.156  MISS %: 39.844  AVERAGE MISS PENALTY: 0
LLC2 PREFETCH  REQUESTED:     0  ISSUED:     0  USEFUL:  1122  USELESS: 14467949
 USEFUL LOAD PREFETCHES:       1122 PREFETCH ISSUED TO LOWER LEVEL:   14469123  ACCURACY: 0.00775444
 TIMELY PREFETCHES:       1122 LATE PREFETCHES: 0 DROPPED PREFETCHES: 0
LLC2 AVERAGE MISS LATENCY: 266.705 cycles
LLC3 TOTAL     ACCESS: 1815202  HIT:  2836  MISS: 1812366  HIT %: 0.156236  MISS %: 99.8438  AVERAGE MISS PENALTY: 270.931
LLC3 LOAD      ACCESS: 12566  HIT:   288  MISS: 12278  HIT %: 2.2919  MISS %: 97.7081  AVERAGE MISS PENALTY: 312.321
LLC3 RFO       ACCESS:    86  HIT:     3  MISS:    83  HIT %: 3.48837  MISS %: 96.5116  AVERAGE MISS PENALTY: 309.928
LLC3 PREFETCH  ACCESS: 1799660  HIT:   819  MISS: 1798841  HIT %: 0.0455086  MISS %: 99.9545  AVERAGE MISS PENALTY: 270.822
LLC3 WRITEBACK ACCESS:  2890  HIT:  1726  MISS:  1164  HIT %: 59.7232  MISS %: 40.2768  AVERAGE MISS PENALTY: 0
LLC3 PREFETCH  REQUESTED:     0  ISSUED:     0  USEFUL:   972  USELESS: 14461016
 USEFUL LOAD PREFETCHES:        972 PREFETCH ISSUED TO LOWER LEVEL:   14462072  ACCURACY: 0.00672103
 TIMELY PREFETCHES:        972 LATE PREFETCHES: 0 DROPPED PREFETCHES: 0
LLC3 AVERAGE MISS LATENCY: 270.931 cycles
LLC4 TOTAL     ACCESS: 1815097  HIT:  2715  MISS: 1812382  HIT %: 0.149579  MISS %: 99.8504  AVERAGE MISS PENALTY: 272.029
LLC4 LOAD      ACCESS: 12155  HIT:   188  MISS: 11967  HIT %: 1.54669  MISS %: 98.4533  AVERAGE MISS PENALTY: 299.88
LLC4 RFO       ACCESS:    53  HIT:     0  MISS:    53  HIT %:     0  MISS %:   100  AVERAGE MISS PENALTY: 311.736
LLC4 PREFETCH  ACCESS: 1800163  HIT:   955  MISS: 1799208  HIT %: 0.0530508  MISS %: 99.9469  AVERAGE MISS PENALTY: 272.017
LLC4 WRITEBACK ACCESS:  2726  HIT:  1572  MISS:  1154  HIT %: 57.6669  MISS %: 42.3331  AVERAGE MISS PENALTY: 0
LLC4 PREFETCH  REQUESTED:     0  ISSUED:     0  USEFUL:  1158  USELESS: 14463465
 USEFUL LOAD PREFETCHES:       1158 PREFETCH ISSUED TO LOWER LEVEL:   14464667  ACCURACY: 0.00800571
 TIMELY PREFETCHES:       1158 LATE PREFETCHES: 0 DROPPED PREFETCHES: 0
LLC4 AVERAGE MISS LATENCY: 272.029 cycles
LLC5 TOTAL     ACCESS: 1815182  HIT:  2562  MISS: 1812620  HIT %: 0.141143  MISS %: 99.8589  AVERAGE MISS PENALTY: 273.084
LLC5 LOAD      ACCESS: 12120  HIT:   139  MISS: 11981  HIT %: 1.14686  MISS %: 98.8531  AVERAGE MISS PENALTY: 299.458
LLC5 RFO       ACCESS:    55  HIT:     0  MISS:    55  HIT %:     0  MISS %:   100  AVERAGE MISS PENALTY: 338.473
LLC5 PREFETCH  ACCESS: 1800179  HIT:   776  MISS: 1799403  HIT %: 0.0431068  MISS %: 99.9569  AVERAGE MISS PENALTY: 273.085
LLC5 WRITEBACK ACCESS:  2828  HIT:  1647  MISS:  1181  HIT %: 58.239  MISS %: 41.761  AVERAGE MISS PENALTY: 0
LLC5 PREFETCH  REQUESTED:     0  ISSUED:     0  USEFUL:   950  USELESS: 14465443
 USEFUL LOAD PREFETCHES:        950 PREFETCH ISSUED TO LOWER LEVEL:   14466436  ACCURACY: 0.00656692
 TIMELY PREFETCHES:        950 LATE PREFETCHES: 0 DROPPED PREFETCHES: 0
LLC5 AVERAGE MISS LATENCY: 273.084 cycles
LLC6 TOTAL     ACCESS: 1814796  HIT:  2643  MISS: 1812153  HIT %: 0.145636  MISS %: 99.8544  AVERAGE MISS PENALTY: 266.018
LLC6 LOAD      ACCESS: 12010  HIT:   225  MISS: 11785  HIT %: 1.87344  MISS %: 98.1266  AVERAGE MISS PENALTY: 301.897
LLC6 RFO       ACCESS:    65  HIT:     4  MISS:    61  HIT %: 6.15385  MISS %: 93.8462  AVERAGE MISS PENALTY: 297.23
LLC6 PREFETCH  ACCESS: 1799962  HIT:   714  MISS: 1799248  HIT %: 0.0396675  MISS %: 99.9603  AVERAGE MISS PENALTY: 265.939
LLC6 WRITEBACK ACCESS:  2759  HIT:  1700  MISS:  1059  HIT %: 61.6165  MISS %: 38.3835  AVERAGE MISS PENALTY: 0
LLC6 PREFETCH  REQUESTED:     0  ISSUED:     0  USEFUL:  1188  USELESS: 14464504
 USEFUL LOAD PREFETCHES:       1188 PREFETCH ISSUED TO LOWER LEVEL:   14465741  ACCURACY: 0.00821251
 TIMELY PREFETCHES:       1188 LATE PREFETCHES: 0 DROPPED PREFETCHES: 0
LLC6 AVERAGE MISS LATENCY: 266.018 cycles
LLC7 TOTAL     ACCESS: 1814977  HIT:  2632  MISS: 1812345  HIT %: 0.145016  MISS %: 99.855  AVERAGE MISS PENALTY: 263.199
LLC7 LOAD      ACCESS: 12183  HIT:   217  MISS: 11966  HIT %: 1.78117  MISS %: 98.2188  AVERAGE MISS PENALTY: 305.522
LLC7 RFO       ACCESS:    35  HIT:     0  MISS:    35  HIT %:     0  MISS %:   100  AVERAGE MISS PENALTY: 304.086
LLC7 PREFETCH  ACCESS: 1799865  HIT:   694  MISS: 1799171  HIT %: 0.0385584  MISS %: 99.9614  AVERAGE MISS PENALTY: 263.088
LLC7 WRITEBACK ACCESS:  2894  HIT:  1721  MISS:  1173  HIT %: 59.4679  MISS %: 40.5321  AVERAGE MISS PENALTY: 0
LLC7 PREFETCH  REQUESTED:     0  ISSUED:     0  USEFUL:  1233  USELESS: 14463624
 USEFUL LOAD PREFETCHES:       1233 PREFETCH ISSUED TO LOWER LEVEL:   14464898  ACCURACY: 0.00852408
 TIMELY PREFETCHES:       1233 LATE PREFETCHES: 0 DROPPED PREFETCHES: 0
LLC7 AVERAGE MISS LATENCY: 263.199 cycles
ROI Average ROB Stall Cycles:	11.5177
ROI Total ROB Stalls Cycles:	1079426315
ROI TOTAL ROB counter      :	93718818
ROI Average Load ROB Stall Cycles:	44.6835
ROI Total Load ROB Stalls Cycle  :	884315763
ROI Total Load ROB stalls Counter:	19790660
Major fault: 0 Minor fault: 48355








Interconnect Stats 
LINK 0 BW : 0LINK 1 BW : 0LINK 2 BW : 0LINK 3 BW : 0LINK 4 BW : 0LINK 5 BW : 0LINK 6 BW : 0LINK 7 BW : 0
DRAM Statistics
 CHANNEL 0
 RQ ROW_BUFFER_HIT: 25176764  ROW_BUFFER_MISS: 33064771
 DBUS_CONGESTED: 29356130
 WQ ROW_BUFFER_HIT: 11394  ROW_BUFFER_MISS: 76975  FULL:     0

 CHANNEL 1
 RQ ROW_BUFFER_HIT: 23915220  ROW_BUFFER_MISS: 34333794
 DBUS_CONGESTED: 29356130
 WQ ROW_BUFFER_HIT: 11311  ROW_BUFFER_MISS: 80381  FULL:     0

 AVG_CONGESTED_CYCLE: 4
DRAM PAGES: 2097152
Allocated PAGES: 386840
L2C destructor called
L1D destructor called
L1I destructor called
STLB destructor called
DTLB destructor called
ITLB destructor called
L2C destructor called
L1D destructor called
L1I destructor called
STLB destructor called
DTLB destructor called
ITLB destructor called
L2C destructor called
L1D destructor called
L1I destructor called
STLB destructor called
DTLB destructor called
ITLB destructor called
L2C destructor called
L1D destructor called
L1I destructor called
STLB destructor called
DTLB destructor called
ITLB destructor called
L2C destructor called
L1D destructor called
L1I destructor called
STLB destructor called
DTLB destructor called
ITLB destructor called
L2C destructor called
L1D destructor called
L1I destructor called
STLB destructor called
DTLB destructor called
ITLB destructor called
L2C destructor called
L1D destructor called
L1I destructor called
STLB destructor called
DTLB destructor called
ITLB destructor called
L2C destructor called
L1D destructor called
L1I destructor called
STLB destructor called
DTLB destructor called
ITLB destructor called
