
*** ChampSim Multicore Out-of-Order Simulator ***

Warmup Instructions: 200000000
Simulation Instructions: 200000000
Number of CPUs: 8
threads:1

L1I Configuration:
L1I_SET:64
L1I_WAY:8
L1I_RQ_SIZE:64
L1I_WQ_SIZE:64
L1I_PQ_SIZE:8
L1I_MSHR_SIZE:8

L1D Configuration:
L1D_SET:64
L1D_WAY:12
L1D_RQ_SIZE:64
L1D_WQ_SIZE:64
L1D_PQ_SIZE:8
L1D_MSHR_SIZE:16

L2C Configuration:
L2C_SET:1024
L2C_WAY:8
L2C_RQ_SIZE:32
L2C_WQ_SIZE:32
L2C_PQ_SIZE:16
L2C_MSHR_SIZE:32

LLC Configuration:
LLC_SET:2048
LLC_WAY:16
LLC SLICES:8
LLC_RQ_SIZE:64
LLC_WQ_SIZE:64
LLC_PQ_SIZE:32
LLC_MSHR_SIZE:64

Interconnect OFF
Attacker deprioritize is: OFF
Off-chip DRAM Size: 8192 MB Channels: 2 Width: 64-bit Data Rate: 3200 MT/s
PAGE SIZE in KB: 4.000000 
PAGE SIZE in MB: 0.003906 
PAGE offset in bits: 12 
CEASER-S_LLC:0
MIRAGE : 1
CEASER_LATENCY:3
REMAP : OFF
Partitions : 1
Multi-Step : OFF
BFS : OFF

CPU 0 runs /home/anubhav/spec_2017/603.bwaves_s-2609B.champsimtrace.xz
CPU 1 runs /home/anubhav/spec_2017/603.bwaves_s-2609B.champsimtrace.xz
CPU 2 runs /home/anubhav/spec_2017/603.bwaves_s-2609B.champsimtrace.xz
CPU 3 runs /home/anubhav/spec_2017/603.bwaves_s-2609B.champsimtrace.xz
CPU 4 runs /home/anubhav/spec_2017/603.bwaves_s-2609B.champsimtrace.xz
CPU 5 runs /home/anubhav/spec_2017/603.bwaves_s-2609B.champsimtrace.xz
CPU 6 runs /home/anubhav/spec_2017/603.bwaves_s-2609B.champsimtrace.xz
CPU 7 runs /home/anubhav/spec_2017/603.bwaves_s-2609B.champsimtrace.xz
CPU 0 Bimodal branch predictor
Initialize Hawkeye state
Initialize Hawkeye state
Initialize Hawkeye state
Initialize Hawkeye state
Initialize Hawkeye state
Initialize Hawkeye state
Initialize Hawkeye state
Initialize Hawkeye state
CPU 1 Bimodal branch predictor
Initialize Hawkeye state
Initialize Hawkeye state
Initialize Hawkeye state
Initialize Hawkeye state
Initialize Hawkeye state
Initialize Hawkeye state
Initialize Hawkeye state
Initialize Hawkeye state
CPU 2 Bimodal branch predictor
Initialize Hawkeye state
Initialize Hawkeye state
Initialize Hawkeye state
Initialize Hawkeye state
Initialize Hawkeye state
Initialize Hawkeye state
Initialize Hawkeye state
Initialize Hawkeye state
CPU 3 Bimodal branch predictor
Initialize Hawkeye state
Initialize Hawkeye state
Initialize Hawkeye state
Initialize Hawkeye state
Initialize Hawkeye state
Initialize Hawkeye state
Initialize Hawkeye state
Initialize Hawkeye state
CPU 4 Bimodal branch predictor
Initialize Hawkeye state
Initialize Hawkeye state
Initialize Hawkeye state
Initialize Hawkeye state
Initialize Hawkeye state
Initialize Hawkeye state
Initialize Hawkeye state
Initialize Hawkeye state
CPU 5 Bimodal branch predictor
Initialize Hawkeye state
Initialize Hawkeye state
Initialize Hawkeye state
Initialize Hawkeye state
Initialize Hawkeye state
Initialize Hawkeye state
Initialize Hawkeye state
Initialize Hawkeye state
CPU 6 Bimodal branch predictor
Initialize Hawkeye state
Initialize Hawkeye state
Initialize Hawkeye state
Initialize Hawkeye state
Initialize Hawkeye state
Initialize Hawkeye state
Initialize Hawkeye state
Initialize Hawkeye state
CPU 7 Bimodal branch predictor
Initialize Hawkeye state
Initialize Hawkeye state
Initialize Hawkeye state
Initialize Hawkeye state
Initialize Hawkeye state
Initialize Hawkeye state
Initialize Hawkeye state
Initialize Hawkeye state
Heartbeat CPU 0 instructions: 10000001 cycles: 5311856 heartbeat IPC: 1.88258 cumulative IPC: 1.88258 (Simulation time: 0 hr 23 min 18 sec) 
 Total Blocks : 262144 Invalid Blocks : 867
Heartbeat CPU 3 instructions: 10000001 cycles: 5311926 heartbeat IPC: 1.88256 cumulative IPC: 1.88256 (Simulation time: 0 hr 23 min 18 sec) 
 Total Blocks : 262144 Invalid Blocks : 867
Heartbeat CPU 1 instructions: 10000001 cycles: 5311940 heartbeat IPC: 1.88255 cumulative IPC: 1.88255 (Simulation time: 0 hr 23 min 18 sec) 
 Total Blocks : 262144 Invalid Blocks : 867
Heartbeat CPU 4 instructions: 10000001 cycles: 5311976 heartbeat IPC: 1.88254 cumulative IPC: 1.88254 (Simulation time: 0 hr 23 min 18 sec) 
 Total Blocks : 262144 Invalid Blocks : 867
Heartbeat CPU 2 instructions: 10000001 cycles: 5311985 heartbeat IPC: 1.88254 cumulative IPC: 1.88254 (Simulation time: 0 hr 23 min 18 sec) 
 Total Blocks : 262144 Invalid Blocks : 867
Heartbeat CPU 5 instructions: 10000001 cycles: 5312092 heartbeat IPC: 1.8825 cumulative IPC: 1.8825 (Simulation time: 0 hr 23 min 18 sec) 
 Total Blocks : 262144 Invalid Blocks : 867
Heartbeat CPU 6 instructions: 10000001 cycles: 5312103 heartbeat IPC: 1.88249 cumulative IPC: 1.88249 (Simulation time: 0 hr 23 min 18 sec) 
 Total Blocks : 262144 Invalid Blocks : 867
Heartbeat CPU 7 instructions: 10000001 cycles: 5312105 heartbeat IPC: 1.88249 cumulative IPC: 1.88249 (Simulation time: 0 hr 23 min 18 sec) 
 Total Blocks : 262144 Invalid Blocks : 867
Heartbeat CPU 0 instructions: 20000000 cycles: 10623653 heartbeat IPC: 1.8826 cumulative IPC: 1.88259 (Simulation time: 0 hr 58 min 19 sec) 
 Total Blocks : 262144 Invalid Blocks : 3
Heartbeat CPU 3 instructions: 20000000 cycles: 10623762 heartbeat IPC: 1.88259 cumulative IPC: 1.88257 (Simulation time: 0 hr 58 min 19 sec) 
 Total Blocks : 262144 Invalid Blocks : 3
Heartbeat CPU 1 instructions: 20000000 cycles: 10623763 heartbeat IPC: 1.88259 cumulative IPC: 1.88257 (Simulation time: 0 hr 58 min 19 sec) 
 Total Blocks : 262144 Invalid Blocks : 3
Heartbeat CPU 4 instructions: 20000000 cycles: 10623802 heartbeat IPC: 1.88259 cumulative IPC: 1.88257 (Simulation time: 0 hr 58 min 19 sec) 
 Total Blocks : 262144 Invalid Blocks : 3
Heartbeat CPU 2 instructions: 20000000 cycles: 10623803 heartbeat IPC: 1.88259 cumulative IPC: 1.88257 (Simulation time: 0 hr 58 min 19 sec) 
 Total Blocks : 262144 Invalid Blocks : 3
Heartbeat CPU 6 instructions: 20000000 cycles: 10624062 heartbeat IPC: 1.88254 cumulative IPC: 1.88252 (Simulation time: 0 hr 58 min 19 sec) 
 Total Blocks : 262144 Invalid Blocks : 3
Heartbeat CPU 7 instructions: 20000000 cycles: 10624064 heartbeat IPC: 1.88254 cumulative IPC: 1.88252 (Simulation time: 0 hr 58 min 19 sec) 
 Total Blocks : 262144 Invalid Blocks : 3
Heartbeat CPU 5 instructions: 20000000 cycles: 10624065 heartbeat IPC: 1.88254 cumulative IPC: 1.88252 (Simulation time: 0 hr 58 min 19 sec) 
 Total Blocks : 262144 Invalid Blocks : 3
Heartbeat CPU 0 instructions: 30000000 cycles: 15934510 heartbeat IPC: 1.88294 cumulative IPC: 1.88271 (Simulation time: 1 hr 41 min 1 sec) 
 Total Blocks : 262144 Invalid Blocks : 0
Heartbeat CPU 3 instructions: 30000000 cycles: 15934694 heartbeat IPC: 1.88291 cumulative IPC: 1.88268 (Simulation time: 1 hr 41 min 1 sec) 
 Total Blocks : 262144 Invalid Blocks : 0
Heartbeat CPU 1 instructions: 30000000 cycles: 15934703 heartbeat IPC: 1.88291 cumulative IPC: 1.88268 (Simulation time: 1 hr 41 min 1 sec) 
 Total Blocks : 262144 Invalid Blocks : 0
Heartbeat CPU 2 instructions: 30000000 cycles: 15934778 heartbeat IPC: 1.88289 cumulative IPC: 1.88267 (Simulation time: 1 hr 41 min 1 sec) 
 Total Blocks : 262144 Invalid Blocks : 0
Heartbeat CPU 4 instructions: 30000000 cycles: 15934780 heartbeat IPC: 1.88289 cumulative IPC: 1.88267 (Simulation time: 1 hr 41 min 1 sec) 
 Total Blocks : 262144 Invalid Blocks : 0
Heartbeat CPU 6 instructions: 30000000 cycles: 15935006 heartbeat IPC: 1.8829 cumulative IPC: 1.88265 (Simulation time: 1 hr 41 min 1 sec) 
 Total Blocks : 262144 Invalid Blocks : 0
Heartbeat CPU 5 instructions: 30000000 cycles: 15935033 heartbeat IPC: 1.8829 cumulative IPC: 1.88264 (Simulation time: 1 hr 41 min 1 sec) 
 Total Blocks : 262144 Invalid Blocks : 0
Heartbeat CPU 7 instructions: 30000000 cycles: 15935035 heartbeat IPC: 1.88289 cumulative IPC: 1.88264 (Simulation time: 1 hr 41 min 1 sec) 
 Total Blocks : 262144 Invalid Blocks : 0
Heartbeat CPU 0 instructions: 40000001 cycles: 21245543 heartbeat IPC: 1.88287 cumulative IPC: 1.88275 (Simulation time: 2 hr 34 min 54 sec) 
 Total Blocks : 262144 Invalid Blocks : 0
Heartbeat CPU 1 instructions: 40000001 cycles: 21245797 heartbeat IPC: 1.88285 cumulative IPC: 1.88273 (Simulation time: 2 hr 34 min 54 sec) 
 Total Blocks : 262144 Invalid Blocks : 0
Heartbeat CPU 3 instructions: 40000001 cycles: 21245808 heartbeat IPC: 1.88284 cumulative IPC: 1.88272 (Simulation time: 2 hr 34 min 54 sec) 
 Total Blocks : 262144 Invalid Blocks : 0
Heartbeat CPU 4 instructions: 40000001 cycles: 21245877 heartbeat IPC: 1.88285 cumulative IPC: 1.88272 (Simulation time: 2 hr 34 min 54 sec) 
 Total Blocks : 262144 Invalid Blocks : 0
Heartbeat CPU 2 instructions: 40000001 cycles: 21245889 heartbeat IPC: 1.88285 cumulative IPC: 1.88272 (Simulation time: 2 hr 34 min 54 sec) 
 Total Blocks : 262144 Invalid Blocks : 0
Heartbeat CPU 6 instructions: 40000001 cycles: 21246068 heartbeat IPC: 1.88286 cumulative IPC: 1.8827 (Simulation time: 2 hr 34 min 54 sec) 
 Total Blocks : 262144 Invalid Blocks : 0
Heartbeat CPU 7 instructions: 40000001 cycles: 21246126 heartbeat IPC: 1.88285 cumulative IPC: 1.8827 (Simulation time: 2 hr 34 min 54 sec) 
 Total Blocks : 262144 Invalid Blocks : 0
Heartbeat CPU 5 instructions: 40000001 cycles: 21246137 heartbeat IPC: 1.88285 cumulative IPC: 1.8827 (Simulation time: 2 hr 34 min 54 sec) 
 Total Blocks : 262144 Invalid Blocks : 0
Heartbeat CPU 0 instructions: 50000001 cycles: 26557359 heartbeat IPC: 1.8826 cumulative IPC: 1.88272 (Simulation time: 3 hr 37 min 19 sec) 
 Total Blocks : 262144 Invalid Blocks : 0
Heartbeat CPU 3 instructions: 50000001 cycles: 26557642 heartbeat IPC: 1.88259 cumulative IPC: 1.8827 (Simulation time: 3 hr 37 min 19 sec) 
 Total Blocks : 262144 Invalid Blocks : 0
Heartbeat CPU 1 instructions: 50000001 cycles: 26557643 heartbeat IPC: 1.88258 cumulative IPC: 1.8827 (Simulation time: 3 hr 37 min 19 sec) 
 Total Blocks : 262144 Invalid Blocks : 0
Heartbeat CPU 4 instructions: 50000001 cycles: 26557708 heartbeat IPC: 1.88259 cumulative IPC: 1.88269 (Simulation time: 3 hr 37 min 19 sec) 
 Total Blocks : 262144 Invalid Blocks : 0
Heartbeat CPU 2 instructions: 50000001 cycles: 26557709 heartbeat IPC: 1.88259 cumulative IPC: 1.88269 (Simulation time: 3 hr 37 min 19 sec) 
 Total Blocks : 262144 Invalid Blocks : 0
Heartbeat CPU 6 instructions: 50000001 cycles: 26557876 heartbeat IPC: 1.8826 cumulative IPC: 1.88268 (Simulation time: 3 hr 37 min 19 sec) 
 Total Blocks : 262144 Invalid Blocks : 0
Heartbeat CPU 7 instructions: 50000001 cycles: 26557947 heartbeat IPC: 1.88259 cumulative IPC: 1.88268 (Simulation time: 3 hr 37 min 19 sec) 
 Total Blocks : 262144 Invalid Blocks : 0
Heartbeat CPU 5 instructions: 50000001 cycles: 26557959 heartbeat IPC: 1.88259 cumulative IPC: 1.88267 (Simulation time: 3 hr 37 min 19 sec) 
 Total Blocks : 262144 Invalid Blocks : 0
Heartbeat CPU 0 instructions: 60000001 cycles: 31868749 heartbeat IPC: 1.88275 cumulative IPC: 1.88272 (Simulation time: 4 hr 47 min 44 sec) 
 Total Blocks : 262144 Invalid Blocks : 0
Heartbeat CPU 1 instructions: 60000001 cycles: 31869078 heartbeat IPC: 1.88273 cumulative IPC: 1.8827 (Simulation time: 4 hr 47 min 45 sec) 
 Total Blocks : 262144 Invalid Blocks : 0
Heartbeat CPU 3 instructions: 60000001 cycles: 31869096 heartbeat IPC: 1.88272 cumulative IPC: 1.8827 (Simulation time: 4 hr 47 min 45 sec) 
 Total Blocks : 262144 Invalid Blocks : 0
Heartbeat CPU 2 instructions: 60000001 cycles: 31869145 heartbeat IPC: 1.88273 cumulative IPC: 1.8827 (Simulation time: 4 hr 47 min 45 sec) 
 Total Blocks : 262144 Invalid Blocks : 0
Heartbeat CPU 4 instructions: 60000001 cycles: 31869163 heartbeat IPC: 1.88272 cumulative IPC: 1.8827 (Simulation time: 4 hr 47 min 45 sec) 
 Total Blocks : 262144 Invalid Blocks : 0
Heartbeat CPU 6 instructions: 60000001 cycles: 31869306 heartbeat IPC: 1.88273 cumulative IPC: 1.88269 (Simulation time: 4 hr 47 min 45 sec) 
 Total Blocks : 262144 Invalid Blocks : 0
Heartbeat CPU 7 instructions: 60000001 cycles: 31869427 heartbeat IPC: 1.88271 cumulative IPC: 1.88268 (Simulation time: 4 hr 47 min 45 sec) 
 Total Blocks : 262144 Invalid Blocks : 0
Heartbeat CPU 5 instructions: 60000001 cycles: 31869429 heartbeat IPC: 1.88272 cumulative IPC: 1.88268 (Simulation time: 4 hr 47 min 45 sec) 
 Total Blocks : 262144 Invalid Blocks : 0
Heartbeat CPU 0 instructions: 70000000 cycles: 37179437 heartbeat IPC: 1.883 cumulative IPC: 1.88276 (Simulation time: 6 hr 8 min 34 sec) 
 Total Blocks : 262144 Invalid Blocks : 0
Heartbeat CPU 1 instructions: 70000000 cycles: 37179835 heartbeat IPC: 1.88297 cumulative IPC: 1.88274 (Simulation time: 6 hr 8 min 34 sec) 
 Total Blocks : 262144 Invalid Blocks : 0
Heartbeat CPU 3 instructions: 70000000 cycles: 37179878 heartbeat IPC: 1.88296 cumulative IPC: 1.88274 (Simulation time: 6 hr 8 min 34 sec) 
 Total Blocks : 262144 Invalid Blocks : 0
Heartbeat CPU 4 instructions: 70000000 cycles: 37179911 heartbeat IPC: 1.88297 cumulative IPC: 1.88274 (Simulation time: 6 hr 8 min 34 sec) 
 Total Blocks : 262144 Invalid Blocks : 0
Heartbeat CPU 2 instructions: 70000000 cycles: 37179912 heartbeat IPC: 1.88297 cumulative IPC: 1.88274 (Simulation time: 6 hr 8 min 34 sec) 
 Total Blocks : 262144 Invalid Blocks : 0
Heartbeat CPU 6 instructions: 70000000 cycles: 37180065 heartbeat IPC: 1.88297 cumulative IPC: 1.88273 (Simulation time: 6 hr 8 min 34 sec) 
 Total Blocks : 262144 Invalid Blocks : 0
Heartbeat CPU 5 instructions: 70000000 cycles: 37180201 heartbeat IPC: 1.88297 cumulative IPC: 1.88272 (Simulation time: 6 hr 8 min 34 sec) 
 Total Blocks : 262144 Invalid Blocks : 0
Heartbeat CPU 7 instructions: 70000000 cycles: 37180204 heartbeat IPC: 1.88296 cumulative IPC: 1.88272 (Simulation time: 6 hr 8 min 34 sec) 
 Total Blocks : 262144 Invalid Blocks : 0
Heartbeat CPU 0 instructions: 80000003 cycles: 42490777 heartbeat IPC: 1.88276 cumulative IPC: 1.88276 (Simulation time: 7 hr 38 min 23 sec) 
 Total Blocks : 262144 Invalid Blocks : 0
Heartbeat CPU 1 instructions: 80000003 cycles: 42491223 heartbeat IPC: 1.88275 cumulative IPC: 1.88274 (Simulation time: 7 hr 38 min 23 sec) 
 Total Blocks : 262144 Invalid Blocks : 0
Heartbeat CPU 3 instructions: 80000003 cycles: 42491284 heartbeat IPC: 1.88274 cumulative IPC: 1.88274 (Simulation time: 7 hr 38 min 23 sec) 
 Total Blocks : 262144 Invalid Blocks : 0
Heartbeat CPU 4 instructions: 80000003 cycles: 42491357 heartbeat IPC: 1.88273 cumulative IPC: 1.88274 (Simulation time: 7 hr 38 min 23 sec) 
 Total Blocks : 262144 Invalid Blocks : 0
Heartbeat CPU 2 instructions: 80000003 cycles: 42491358 heartbeat IPC: 1.88273 cumulative IPC: 1.88274 (Simulation time: 7 hr 38 min 23 sec) 
 Total Blocks : 262144 Invalid Blocks : 0
Heartbeat CPU 6 instructions: 80000003 cycles: 42491471 heartbeat IPC: 1.88274 cumulative IPC: 1.88273 (Simulation time: 7 hr 38 min 23 sec) 
 Total Blocks : 262144 Invalid Blocks : 0
Heartbeat CPU 7 instructions: 80000003 cycles: 42491658 heartbeat IPC: 1.88272 cumulative IPC: 1.88272 (Simulation time: 7 hr 38 min 23 sec) 
 Total Blocks : 262144 Invalid Blocks : 0
Heartbeat CPU 5 instructions: 80000003 cycles: 42491660 heartbeat IPC: 1.88272 cumulative IPC: 1.88272 (Simulation time: 7 hr 38 min 23 sec) 
 Total Blocks : 262144 Invalid Blocks : 0
Heartbeat CPU 0 instructions: 90000002 cycles: 47802708 heartbeat IPC: 1.88255 cumulative IPC: 1.88274 (Simulation time: 9 hr 17 min 12 sec) 
 Total Blocks : 262144 Invalid Blocks : 0
Heartbeat CPU 1 instructions: 90000002 cycles: 47803200 heartbeat IPC: 1.88254 cumulative IPC: 1.88272 (Simulation time: 9 hr 17 min 12 sec) 
 Total Blocks : 262144 Invalid Blocks : 0
Heartbeat CPU 3 instructions: 90000002 cycles: 47803275 heartbeat IPC: 1.88253 cumulative IPC: 1.88272 (Simulation time: 9 hr 17 min 12 sec) 
 Total Blocks : 262144 Invalid Blocks : 0
Heartbeat CPU 4 instructions: 90000002 cycles: 47803383 heartbeat IPC: 1.88252 cumulative IPC: 1.88271 (Simulation time: 9 hr 17 min 12 sec) 
 Total Blocks : 262144 Invalid Blocks : 0
Heartbeat CPU 2 instructions: 90000002 cycles: 47803384 heartbeat IPC: 1.88252 cumulative IPC: 1.88271 (Simulation time: 9 hr 17 min 12 sec) 
 Total Blocks : 262144 Invalid Blocks : 0
Heartbeat CPU 6 instructions: 90000002 cycles: 47803465 heartbeat IPC: 1.88253 cumulative IPC: 1.88271 (Simulation time: 9 hr 17 min 12 sec) 
 Total Blocks : 262144 Invalid Blocks : 0
Heartbeat CPU 7 instructions: 90000002 cycles: 47803684 heartbeat IPC: 1.88252 cumulative IPC: 1.8827 (Simulation time: 9 hr 17 min 12 sec) 
 Total Blocks : 262144 Invalid Blocks : 0
Heartbeat CPU 5 instructions: 90000002 cycles: 47803686 heartbeat IPC: 1.88252 cumulative IPC: 1.8827 (Simulation time: 9 hr 17 min 12 sec) 
 Total Blocks : 262144 Invalid Blocks : 0
Heartbeat CPU 0 instructions: 100000002 cycles: 53113666 heartbeat IPC: 1.8829 cumulative IPC: 1.88275 (Simulation time: 11 hr 2 min 27 sec) 
 Total Blocks : 262144 Invalid Blocks : 0
Heartbeat CPU 1 instructions: 100000002 cycles: 53114210 heartbeat IPC: 1.88288 cumulative IPC: 1.88274 (Simulation time: 11 hr 2 min 36 sec) 
 Total Blocks : 262144 Invalid Blocks : 0
Heartbeat CPU 3 instructions: 100000002 cycles: 53114304 heartbeat IPC: 1.88287 cumulative IPC: 1.88273 (Simulation time: 11 hr 2 min 36 sec) 
 Total Blocks : 262144 Invalid Blocks : 0
Heartbeat CPU 4 instructions: 100000002 cycles: 53114433 heartbeat IPC: 1.88287 cumulative IPC: 1.88273 (Simulation time: 11 hr 2 min 36 sec) 
 Total Blocks : 262144 Invalid Blocks : 0
Heartbeat CPU 2 instructions: 100000002 cycles: 53114445 heartbeat IPC: 1.88286 cumulative IPC: 1.88273 (Simulation time: 11 hr 2 min 36 sec) 
 Total Blocks : 262144 Invalid Blocks : 0
Heartbeat CPU 6 instructions: 100000002 cycles: 53114491 heartbeat IPC: 1.88288 cumulative IPC: 1.88273 (Simulation time: 11 hr 2 min 36 sec) 
 Total Blocks : 262144 Invalid Blocks : 0
Heartbeat CPU 7 instructions: 100000002 cycles: 53114720 heartbeat IPC: 1.88287 cumulative IPC: 1.88272 (Simulation time: 11 hr 2 min 36 sec) 
 Total Blocks : 262144 Invalid Blocks : 0
Heartbeat CPU 5 instructions: 100000002 cycles: 53114728 heartbeat IPC: 1.88287 cumulative IPC: 1.88272 (Simulation time: 11 hr 2 min 36 sec) 
 Total Blocks : 262144 Invalid Blocks : 0
Heartbeat CPU 0 instructions: 110000000 cycles: 58424334 heartbeat IPC: 1.883 cumulative IPC: 1.88278 (Simulation time: 12 hr 46 min 44 sec) 
 Total Blocks : 262144 Invalid Blocks : 0
Heartbeat CPU 1 instructions: 110000000 cycles: 58424916 heartbeat IPC: 1.88299 cumulative IPC: 1.88276 (Simulation time: 12 hr 46 min 44 sec) 
 Total Blocks : 262144 Invalid Blocks : 0
Heartbeat CPU 3 instructions: 110000000 cycles: 58425041 heartbeat IPC: 1.88298 cumulative IPC: 1.88275 (Simulation time: 12 hr 46 min 44 sec) 
 Total Blocks : 262144 Invalid Blocks : 0
Heartbeat CPU 2 instructions: 110000000 cycles: 58425191 heartbeat IPC: 1.88297 cumulative IPC: 1.88275 (Simulation time: 12 hr 46 min 44 sec) 
 Total Blocks : 262144 Invalid Blocks : 0
Heartbeat CPU 4 instructions: 110000000 cycles: 58425202 heartbeat IPC: 1.88297 cumulative IPC: 1.88275 (Simulation time: 12 hr 46 min 44 sec) 
 Total Blocks : 262144 Invalid Blocks : 0
Heartbeat CPU 6 instructions: 110000000 cycles: 58425241 heartbeat IPC: 1.88297 cumulative IPC: 1.88275 (Simulation time: 12 hr 46 min 44 sec) 
 Total Blocks : 262144 Invalid Blocks : 0
Heartbeat CPU 7 instructions: 110000000 cycles: 58425450 heartbeat IPC: 1.88298 cumulative IPC: 1.88274 (Simulation time: 12 hr 46 min 44 sec) 
 Total Blocks : 262144 Invalid Blocks : 0
Heartbeat CPU 5 instructions: 110000000 cycles: 58425460 heartbeat IPC: 1.88298 cumulative IPC: 1.88274 (Simulation time: 12 hr 46 min 44 sec) 
 Total Blocks : 262144 Invalid Blocks : 0
Heartbeat CPU 0 instructions: 120000003 cycles: 63736106 heartbeat IPC: 1.88261 cumulative IPC: 1.88276 (Simulation time: 14 hr 35 min 32 sec) 
 Total Blocks : 262144 Invalid Blocks : 0
Heartbeat CPU 1 instructions: 120000003 cycles: 63736742 heartbeat IPC: 1.88259 cumulative IPC: 1.88274 (Simulation time: 14 hr 35 min 32 sec) 
 Total Blocks : 262144 Invalid Blocks : 0
Heartbeat CPU 3 instructions: 120000003 cycles: 63736888 heartbeat IPC: 1.88258 cumulative IPC: 1.88274 (Simulation time: 14 hr 35 min 32 sec) 
 Total Blocks : 262144 Invalid Blocks : 0
Heartbeat CPU 2 instructions: 120000003 cycles: 63737029 heartbeat IPC: 1.88259 cumulative IPC: 1.88274 (Simulation time: 14 hr 35 min 32 sec) 
 Total Blocks : 262144 Invalid Blocks : 0
Heartbeat CPU 4 instructions: 120000003 cycles: 63737053 heartbeat IPC: 1.88258 cumulative IPC: 1.88274 (Simulation time: 14 hr 35 min 32 sec) 
 Total Blocks : 262144 Invalid Blocks : 0
Heartbeat CPU 6 instructions: 120000003 cycles: 63737088 heartbeat IPC: 1.88258 cumulative IPC: 1.88273 (Simulation time: 14 hr 35 min 32 sec) 
 Total Blocks : 262144 Invalid Blocks : 0
Heartbeat CPU 7 instructions: 120000003 cycles: 63737320 heartbeat IPC: 1.88258 cumulative IPC: 1.88273 (Simulation time: 14 hr 35 min 32 sec) 
 Total Blocks : 262144 Invalid Blocks : 0
Heartbeat CPU 5 instructions: 120000003 cycles: 63737333 heartbeat IPC: 1.88258 cumulative IPC: 1.88273 (Simulation time: 14 hr 35 min 32 sec) 
 Total Blocks : 262144 Invalid Blocks : 0
Heartbeat CPU 0 instructions: 130000001 cycles: 69047737 heartbeat IPC: 1.88266 cumulative IPC: 1.88276 (Simulation time: 16 hr 30 min 33 sec) 
 Total Blocks : 262144 Invalid Blocks : 0
Heartbeat CPU 1 instructions: 130000001 cycles: 69048431 heartbeat IPC: 1.88264 cumulative IPC: 1.88274 (Simulation time: 16 hr 30 min 43 sec) 
 Total Blocks : 262144 Invalid Blocks : 0
Heartbeat CPU 3 instructions: 130000001 cycles: 69048600 heartbeat IPC: 1.88263 cumulative IPC: 1.88273 (Simulation time: 16 hr 30 min 47 sec) 
 Total Blocks : 262144 Invalid Blocks : 0
Heartbeat CPU 2 instructions: 130000001 cycles: 69048734 heartbeat IPC: 1.88263 cumulative IPC: 1.88273 (Simulation time: 16 hr 30 min 47 sec) 
 Total Blocks : 262144 Invalid Blocks : 0
Heartbeat CPU 4 instructions: 130000001 cycles: 69048764 heartbeat IPC: 1.88263 cumulative IPC: 1.88273 (Simulation time: 16 hr 30 min 47 sec) 
 Total Blocks : 262144 Invalid Blocks : 0
Heartbeat CPU 6 instructions: 130000001 cycles: 69048807 heartbeat IPC: 1.88263 cumulative IPC: 1.88273 (Simulation time: 16 hr 30 min 47 sec) 
 Total Blocks : 262144 Invalid Blocks : 0
Heartbeat CPU 7 instructions: 130000001 cycles: 69049052 heartbeat IPC: 1.88262 cumulative IPC: 1.88272 (Simulation time: 16 hr 30 min 47 sec) 
 Total Blocks : 262144 Invalid Blocks : 0
Heartbeat CPU 5 instructions: 130000001 cycles: 69049059 heartbeat IPC: 1.88263 cumulative IPC: 1.88272 (Simulation time: 16 hr 30 min 47 sec) 
 Total Blocks : 262144 Invalid Blocks : 0
Heartbeat CPU 0 instructions: 140000001 cycles: 74358331 heartbeat IPC: 1.88303 cumulative IPC: 1.88277 (Simulation time: 18 hr 32 min 45 sec) 
 Total Blocks : 262144 Invalid Blocks : 0
Heartbeat CPU 1 instructions: 140000001 cycles: 74359093 heartbeat IPC: 1.883 cumulative IPC: 1.88276 (Simulation time: 18 hr 32 min 45 sec) 
 Total Blocks : 262144 Invalid Blocks : 0
Heartbeat CPU 3 instructions: 140000001 cycles: 74359264 heartbeat IPC: 1.883 cumulative IPC: 1.88275 (Simulation time: 18 hr 32 min 45 sec) 
 Total Blocks : 262144 Invalid Blocks : 0
Heartbeat CPU 2 instructions: 140000001 cycles: 74359395 heartbeat IPC: 1.883 cumulative IPC: 1.88275 (Simulation time: 18 hr 32 min 45 sec) 
 Total Blocks : 262144 Invalid Blocks : 0
Heartbeat CPU 4 instructions: 140000001 cycles: 74359437 heartbeat IPC: 1.883 cumulative IPC: 1.88275 (Simulation time: 18 hr 32 min 45 sec) 
 Total Blocks : 262144 Invalid Blocks : 0
Heartbeat CPU 6 instructions: 140000001 cycles: 74359472 heartbeat IPC: 1.883 cumulative IPC: 1.88275 (Simulation time: 18 hr 32 min 45 sec) 
 Total Blocks : 262144 Invalid Blocks : 0
Heartbeat CPU 7 instructions: 140000001 cycles: 74359724 heartbeat IPC: 1.883 cumulative IPC: 1.88274 (Simulation time: 18 hr 32 min 45 sec) 
 Total Blocks : 262144 Invalid Blocks : 0
Heartbeat CPU 5 instructions: 140000001 cycles: 74359726 heartbeat IPC: 1.883 cumulative IPC: 1.88274 (Simulation time: 18 hr 32 min 45 sec) 
 Total Blocks : 262144 Invalid Blocks : 0
Heartbeat CPU 0 instructions: 150000002 cycles: 79669408 heartbeat IPC: 1.88286 cumulative IPC: 1.88278 (Simulation time: 20 hr 41 min 32 sec) 
 Total Blocks : 262144 Invalid Blocks : 0
Heartbeat CPU 1 instructions: 150000002 cycles: 79670215 heartbeat IPC: 1.88284 cumulative IPC: 1.88276 (Simulation time: 20 hr 41 min 33 sec) 
 Total Blocks : 262144 Invalid Blocks : 0
Heartbeat CPU 3 instructions: 150000002 cycles: 79670394 heartbeat IPC: 1.88284 cumulative IPC: 1.88276 (Simulation time: 20 hr 41 min 34 sec) 
 Total Blocks : 262144 Invalid Blocks : 0
Heartbeat CPU 2 instructions: 150000002 cycles: 79670528 heartbeat IPC: 1.88284 cumulative IPC: 1.88275 (Simulation time: 20 hr 41 min 34 sec) 
 Total Blocks : 262144 Invalid Blocks : 0
Heartbeat CPU 4 instructions: 150000002 cycles: 79670567 heartbeat IPC: 1.88284 cumulative IPC: 1.88275 (Simulation time: 20 hr 41 min 34 sec) 
 Total Blocks : 262144 Invalid Blocks : 0
Heartbeat CPU 6 instructions: 150000002 cycles: 79670603 heartbeat IPC: 1.88284 cumulative IPC: 1.88275 (Simulation time: 20 hr 41 min 35 sec) 
 Total Blocks : 262144 Invalid Blocks : 0
Heartbeat CPU 7 instructions: 150000002 cycles: 79670889 heartbeat IPC: 1.88283 cumulative IPC: 1.88275 (Simulation time: 20 hr 41 min 35 sec) 
 Total Blocks : 262144 Invalid Blocks : 0
Heartbeat CPU 5 instructions: 150000002 cycles: 79670892 heartbeat IPC: 1.88283 cumulative IPC: 1.88275 (Simulation time: 20 hr 41 min 35 sec) 
 Total Blocks : 262144 Invalid Blocks : 0
Heartbeat CPU 0 instructions: 160000002 cycles: 84981218 heartbeat IPC: 1.8826 cumulative IPC: 1.88277 (Simulation time: 22 hr 49 min 52 sec) 
 Total Blocks : 262144 Invalid Blocks : 0
Heartbeat CPU 1 instructions: 160000002 cycles: 84982067 heartbeat IPC: 1.88258 cumulative IPC: 1.88275 (Simulation time: 22 hr 49 min 57 sec) 
 Total Blocks : 262144 Invalid Blocks : 0
Heartbeat CPU 3 instructions: 160000002 cycles: 84982274 heartbeat IPC: 1.88257 cumulative IPC: 1.88275 (Simulation time: 22 hr 50 min 5 sec) 
 Total Blocks : 262144 Invalid Blocks : 0
Heartbeat CPU 2 instructions: 160000002 cycles: 84982409 heartbeat IPC: 1.88257 cumulative IPC: 1.88274 (Simulation time: 22 hr 50 min 5 sec) 
 Total Blocks : 262144 Invalid Blocks : 0
Heartbeat CPU 4 instructions: 160000002 cycles: 84982443 heartbeat IPC: 1.88257 cumulative IPC: 1.88274 (Simulation time: 22 hr 50 min 5 sec) 
 Total Blocks : 262144 Invalid Blocks : 0
Heartbeat CPU 6 instructions: 160000002 cycles: 84982478 heartbeat IPC: 1.88257 cumulative IPC: 1.88274 (Simulation time: 22 hr 50 min 5 sec) 
 Total Blocks : 262144 Invalid Blocks : 0
Heartbeat CPU 5 instructions: 160000002 cycles: 84982818 heartbeat IPC: 1.88256 cumulative IPC: 1.88273 (Simulation time: 22 hr 50 min 10 sec) 
 Total Blocks : 262144 Invalid Blocks : 0
Heartbeat CPU 7 instructions: 160000002 cycles: 84982845 heartbeat IPC: 1.88255 cumulative IPC: 1.88273 (Simulation time: 22 hr 50 min 10 sec) 
 Total Blocks : 262144 Invalid Blocks : 0
Heartbeat CPU 0 instructions: 170000002 cycles: 90292441 heartbeat IPC: 1.88281 cumulative IPC: 1.88277 (Simulation time: 25 hr 20 min 45 sec) 
 Total Blocks : 262144 Invalid Blocks : 0
Heartbeat CPU 1 instructions: 170000002 cycles: 90293329 heartbeat IPC: 1.88279 cumulative IPC: 1.88275 (Simulation time: 25 hr 20 min 45 sec) 
 Total Blocks : 262144 Invalid Blocks : 0
Heartbeat CPU 3 instructions: 170000002 cycles: 90293569 heartbeat IPC: 1.88278 cumulative IPC: 1.88275 (Simulation time: 25 hr 20 min 45 sec) 
 Total Blocks : 262144 Invalid Blocks : 0
Heartbeat CPU 2 instructions: 170000002 cycles: 90293700 heartbeat IPC: 1.88278 cumulative IPC: 1.88274 (Simulation time: 25 hr 20 min 45 sec) 
 Total Blocks : 262144 Invalid Blocks : 0
Heartbeat CPU 4 instructions: 170000002 cycles: 90293735 heartbeat IPC: 1.88278 cumulative IPC: 1.88274 (Simulation time: 25 hr 20 min 45 sec) 
 Total Blocks : 262144 Invalid Blocks : 0
Heartbeat CPU 6 instructions: 170000002 cycles: 90293769 heartbeat IPC: 1.88278 cumulative IPC: 1.88274 (Simulation time: 25 hr 20 min 45 sec) 
 Total Blocks : 262144 Invalid Blocks : 0
Heartbeat CPU 5 instructions: 170000002 cycles: 90294121 heartbeat IPC: 1.88278 cumulative IPC: 1.88274 (Simulation time: 25 hr 20 min 45 sec) 
 Total Blocks : 262144 Invalid Blocks : 0
Heartbeat CPU 7 instructions: 170000002 cycles: 90294158 heartbeat IPC: 1.88277 cumulative IPC: 1.88274 (Simulation time: 25 hr 20 min 45 sec) 
 Total Blocks : 262144 Invalid Blocks : 0
Heartbeat CPU 0 instructions: 180000000 cycles: 95603105 heartbeat IPC: 1.883 cumulative IPC: 1.88278 (Simulation time: 27 hr 37 min 12 sec) 
 Total Blocks : 262144 Invalid Blocks : 0
Heartbeat CPU 1 instructions: 180000000 cycles: 95604050 heartbeat IPC: 1.88298 cumulative IPC: 1.88277 (Simulation time: 27 hr 37 min 12 sec) 
 Total Blocks : 262144 Invalid Blocks : 0
Heartbeat CPU 3 instructions: 180000000 cycles: 95604311 heartbeat IPC: 1.88298 cumulative IPC: 1.88276 (Simulation time: 27 hr 37 min 12 sec) 
 Total Blocks : 262144 Invalid Blocks : 0
Heartbeat CPU 2 instructions: 180000000 cycles: 95604434 heartbeat IPC: 1.88298 cumulative IPC: 1.88276 (Simulation time: 27 hr 37 min 12 sec) 
 Total Blocks : 262144 Invalid Blocks : 0
Heartbeat CPU 4 instructions: 180000000 cycles: 95604471 heartbeat IPC: 1.88298 cumulative IPC: 1.88276 (Simulation time: 27 hr 37 min 12 sec) 
 Total Blocks : 262144 Invalid Blocks : 0
Heartbeat CPU 6 instructions: 180000000 cycles: 95604505 heartbeat IPC: 1.88298 cumulative IPC: 1.88276 (Simulation time: 27 hr 37 min 12 sec) 
 Total Blocks : 262144 Invalid Blocks : 0
Heartbeat CPU 5 instructions: 180000000 cycles: 95604850 heartbeat IPC: 1.88298 cumulative IPC: 1.88275 (Simulation time: 27 hr 37 min 12 sec) 
 Total Blocks : 262144 Invalid Blocks : 0
Heartbeat CPU 7 instructions: 180000000 cycles: 95604887 heartbeat IPC: 1.88298 cumulative IPC: 1.88275 (Simulation time: 27 hr 37 min 12 sec) 
 Total Blocks : 262144 Invalid Blocks : 0
Heartbeat CPU 0 instructions: 190000003 cycles: 100914717 heartbeat IPC: 1.88267 cumulative IPC: 1.88278 (Simulation time: 29 hr 48 min 23 sec) 
 Total Blocks : 262144 Invalid Blocks : 0
Heartbeat CPU 1 instructions: 190000003 cycles: 100915686 heartbeat IPC: 1.88266 cumulative IPC: 1.88276 (Simulation time: 29 hr 48 min 26 sec) 
 Total Blocks : 262144 Invalid Blocks : 0
Heartbeat CPU 3 instructions: 190000003 cycles: 100915982 heartbeat IPC: 1.88265 cumulative IPC: 1.88275 (Simulation time: 29 hr 48 min 28 sec) 
 Total Blocks : 262144 Invalid Blocks : 0
Heartbeat CPU 2 instructions: 190000003 cycles: 100916120 heartbeat IPC: 1.88264 cumulative IPC: 1.88275 (Simulation time: 29 hr 48 min 33 sec) 
 Total Blocks : 262144 Invalid Blocks : 0
Heartbeat CPU 4 instructions: 190000003 cycles: 100916139 heartbeat IPC: 1.88265 cumulative IPC: 1.88275 (Simulation time: 29 hr 48 min 33 sec) 
 Total Blocks : 262144 Invalid Blocks : 0
Heartbeat CPU 6 instructions: 190000003 cycles: 100916182 heartbeat IPC: 1.88265 cumulative IPC: 1.88275 (Simulation time: 29 hr 48 min 35 sec) 
 Total Blocks : 262144 Invalid Blocks : 0
Heartbeat CPU 5 instructions: 190000003 cycles: 100916518 heartbeat IPC: 1.88265 cumulative IPC: 1.88274 (Simulation time: 29 hr 48 min 40 sec) 
 Total Blocks : 262144 Invalid Blocks : 0
Heartbeat CPU 7 instructions: 190000003 cycles: 100916544 heartbeat IPC: 1.88265 cumulative IPC: 1.88274 (Simulation time: 29 hr 48 min 40 sec) 
 Total Blocks : 262144 Invalid Blocks : 0
Heartbeat CPU 0 instructions: 200000003 cycles: 106226514 heartbeat IPC: 1.8826 cumulative IPC: 1.88277 (Simulation time: 32 hr 6 min 36 sec) 
 Total Blocks : 262144 Invalid Blocks : 0
Heartbeat CPU 1 instructions: 200000003 cycles: 106227531 heartbeat IPC: 1.88259 cumulative IPC: 1.88275 (Simulation time: 32 hr 6 min 36 sec) 
 Total Blocks : 262144 Invalid Blocks : 0
Heartbeat CPU 3 instructions: 200000003 cycles: 106227854 heartbeat IPC: 1.88258 cumulative IPC: 1.88275 (Simulation time: 32 hr 6 min 36 sec) 
 Total Blocks : 262144 Invalid Blocks : 0
Heartbeat CPU 2 instructions: 200000003 cycles: 106227983 heartbeat IPC: 1.88258 cumulative IPC: 1.88274 (Simulation time: 32 hr 6 min 36 sec) 
 Total Blocks : 262144 Invalid Blocks : 0
Heartbeat CPU 4 instructions: 200000003 cycles: 106227993 heartbeat IPC: 1.88258 cumulative IPC: 1.88274 (Simulation time: 32 hr 6 min 36 sec) 
 Total Blocks : 262144 Invalid Blocks : 0
Heartbeat CPU 6 instructions: 200000003 cycles: 106228056 heartbeat IPC: 1.88257 cumulative IPC: 1.88274 (Simulation time: 32 hr 6 min 36 sec) 
 Total Blocks : 262144 Invalid Blocks : 0
Heartbeat CPU 7 instructions: 200000003 cycles: 106228392 heartbeat IPC: 1.88258 cumulative IPC: 1.88274 (Simulation time: 32 hr 6 min 36 sec) 
 Total Blocks : 262144 Invalid Blocks : 0
Heartbeat CPU 5 instructions: 200000003 cycles: 106228394 heartbeat IPC: 1.88257 cumulative IPC: 1.88274 (Simulation time: 32 hr 6 min 36 sec) 
 Total Blocks : 262144 Invalid Blocks : 0

Warmup complete CPU 0 instructions: 200003585 cycles: 106228394 (Simulation time: 32 hr 6 min 36 sec) 
Warmup complete CPU 1 instructions: 200001681 cycles: 106228394 (Simulation time: 32 hr 6 min 36 sec) 
Warmup complete CPU 2 instructions: 200000770 cycles: 106228394 (Simulation time: 32 hr 6 min 36 sec) 
Warmup complete CPU 3 instructions: 200001088 cycles: 106228394 (Simulation time: 32 hr 6 min 36 sec) 
Warmup complete CPU 4 instructions: 200000770 cycles: 106228394 (Simulation time: 32 hr 6 min 36 sec) 
Warmup complete CPU 5 instructions: 200000003 cycles: 106228394 (Simulation time: 32 hr 6 min 36 sec) 
Warmup complete CPU 6 instructions: 200000649 cycles: 106228393 (Simulation time: 32 hr 6 min 36 sec) 
Warmup complete CPU 7 instructions: 200000007 cycles: 106228393 (Simulation time: 32 hr 6 min 36 sec) 

Heartbeat CPU 0 instructions: 210000002 cycles: 116784054 heartbeat IPC: 0.94719 cumulative IPC: 0.94702 (Simulation time: 34 hr 34 min 5 sec) 
 Total Blocks : 262144 Invalid Blocks : 0
Heartbeat CPU 5 instructions: 210000002 cycles: 116800380 heartbeat IPC: 0.945896 cumulative IPC: 0.945896 (Simulation time: 34 hr 34 min 24 sec) 
 Total Blocks : 262144 Invalid Blocks : 0
Heartbeat CPU 6 instructions: 210000002 cycles: 116824228 heartbeat IPC: 0.943737 cumulative IPC: 0.943706 (Simulation time: 34 hr 34 min 53 sec) 
 Total Blocks : 262144 Invalid Blocks : 0
Heartbeat CPU 2 instructions: 210000002 cycles: 116835066 heartbeat IPC: 0.942766 cumulative IPC: 0.94273 (Simulation time: 34 hr 35 min 8 sec) 
 Total Blocks : 262144 Invalid Blocks : 0
Heartbeat CPU 3 instructions: 210000002 cycles: 116867029 heartbeat IPC: 0.939922 cumulative IPC: 0.939868 (Simulation time: 34 hr 35 min 44 sec) 
 Total Blocks : 262144 Invalid Blocks : 0
Heartbeat CPU 1 instructions: 210000002 cycles: 116876011 heartbeat IPC: 0.939101 cumulative IPC: 0.93902 (Simulation time: 34 hr 35 min 50 sec) 
 Total Blocks : 262144 Invalid Blocks : 0
Heartbeat CPU 4 instructions: 210000002 cycles: 116898691 heartbeat IPC: 0.937146 cumulative IPC: 0.937109 (Simulation time: 34 hr 36 min 17 sec) 
 Total Blocks : 262144 Invalid Blocks : 0
Heartbeat CPU 7 instructions: 210000002 cycles: 116924697 heartbeat IPC: 0.934902 cumulative IPC: 0.934902 (Simulation time: 34 hr 36 min 52 sec) 
 Total Blocks : 262144 Invalid Blocks : 0
Heartbeat CPU 5 instructions: 220000000 cycles: 127443301 heartbeat IPC: 0.939591 cumulative IPC: 0.942733 (Simulation time: 38 hr 12 min 44 sec) 
 Total Blocks : 262144 Invalid Blocks : 0
Heartbeat CPU 6 instructions: 220000000 cycles: 127452998 heartbeat IPC: 0.940842 cumulative IPC: 0.942272 (Simulation time: 38 hr 12 min 52 sec) 
 Total Blocks : 262144 Invalid Blocks : 0
Heartbeat CPU 0 instructions: 220000000 cycles: 127481075 heartbeat IPC: 0.93484 cumulative IPC: 0.940889 (Simulation time: 38 hr 13 min 24 sec) 
 Total Blocks : 262144 Invalid Blocks : 0
Heartbeat CPU 7 instructions: 220000000 cycles: 127491061 heartbeat IPC: 0.946399 cumulative IPC: 0.940615 (Simulation time: 38 hr 13 min 40 sec) 
 Total Blocks : 262144 Invalid Blocks : 0
Heartbeat CPU 1 instructions: 220000000 cycles: 127500809 heartbeat IPC: 0.941194 cumulative IPC: 0.940106 (Simulation time: 38 hr 13 min 51 sec) 
 Total Blocks : 262144 Invalid Blocks : 0
Heartbeat CPU 2 instructions: 220000000 cycles: 127515317 heartbeat IPC: 0.936307 cumulative IPC: 0.939508 (Simulation time: 38 hr 14 min 8 sec) 
 Total Blocks : 262144 Invalid Blocks : 0
Heartbeat CPU 4 instructions: 220000000 cycles: 127516812 heartbeat IPC: 0.941786 cumulative IPC: 0.939442 (Simulation time: 38 hr 14 min 8 sec) 
 Total Blocks : 262144 Invalid Blocks : 0
Heartbeat CPU 3 instructions: 220000000 cycles: 127534471 heartbeat IPC: 0.937432 cumulative IPC: 0.938648 (Simulation time: 38 hr 14 min 32 sec) 
 Total Blocks : 262144 Invalid Blocks : 0
Heartbeat CPU 6 instructions: 230000001 cycles: 138107375 heartbeat IPC: 0.938581 cumulative IPC: 0.941039 (Simulation time: 41 hr 45 min 40 sec) 
 Total Blocks : 262144 Invalid Blocks : 0
Heartbeat CPU 2 instructions: 230000001 cycles: 138115697 heartbeat IPC: 0.943362 cumulative IPC: 0.940789 (Simulation time: 41 hr 45 min 46 sec) 
 Total Blocks : 262144 Invalid Blocks : 0
Heartbeat CPU 1 instructions: 230000001 cycles: 138160879 heartbeat IPC: 0.93808 cumulative IPC: 0.93943 (Simulation time: 41 hr 46 min 43 sec) 
 Total Blocks : 262144 Invalid Blocks : 0
Heartbeat CPU 4 instructions: 230000001 cycles: 138165247 heartbeat IPC: 0.939105 cumulative IPC: 0.93933 (Simulation time: 41 hr 46 min 43 sec) 
 Total Blocks : 262144 Invalid Blocks : 0
Heartbeat CPU 0 instructions: 230000001 cycles: 138216822 heartbeat IPC: 0.931468 cumulative IPC: 0.937727 (Simulation time: 41 hr 47 min 50 sec) 
 Total Blocks : 262144 Invalid Blocks : 0
Heartbeat CPU 5 instructions: 230000001 cycles: 138220092 heartbeat IPC: 0.92792 cumulative IPC: 0.937743 (Simulation time: 41 hr 47 min 50 sec) 
 Total Blocks : 262144 Invalid Blocks : 0
Heartbeat CPU 7 instructions: 230000001 cycles: 138238186 heartbeat IPC: 0.930481 cumulative IPC: 0.937213 (Simulation time: 41 hr 48 min 19 sec) 
 Total Blocks : 262144 Invalid Blocks : 0
Heartbeat CPU 3 instructions: 230000001 cycles: 138248368 heartbeat IPC: 0.933367 cumulative IPC: 0.936881 (Simulation time: 41 hr 48 min 22 sec) 
 Total Blocks : 262144 Invalid Blocks : 0
Heartbeat CPU 2 instructions: 240000003 cycles: 148743957 heartbeat IPC: 0.940888 cumulative IPC: 0.940814 (Simulation time: 45 hr 23 min 22 sec) 
 Total Blocks : 262144 Invalid Blocks : 0
Heartbeat CPU 3 instructions: 240000003 cycles: 148744709 heartbeat IPC: 0.952713 cumulative IPC: 0.94079 (Simulation time: 45 hr 23 min 24 sec) 
 Total Blocks : 262144 Invalid Blocks : 0
Heartbeat CPU 0 instructions: 240000003 cycles: 148783436 heartbeat IPC: 0.946377 cumulative IPC: 0.939875 (Simulation time: 45 hr 24 min 5 sec) 
 Total Blocks : 262144 Invalid Blocks : 0
Heartbeat CPU 6 instructions: 240000003 cycles: 148791263 heartbeat IPC: 0.935989 cumulative IPC: 0.939771 (Simulation time: 45 hr 24 min 16 sec) 
 Total Blocks : 262144 Invalid Blocks : 0
Heartbeat CPU 4 instructions: 240000003 cycles: 148794952 heartbeat IPC: 0.94076 cumulative IPC: 0.939687 (Simulation time: 45 hr 24 min 21 sec) 
 Total Blocks : 262144 Invalid Blocks : 0
Heartbeat CPU 1 instructions: 240000003 cycles: 148831719 heartbeat IPC: 0.937134 cumulative IPC: 0.938854 (Simulation time: 45 hr 25 min 6 sec) 
 Total Blocks : 262144 Invalid Blocks : 0
Heartbeat CPU 5 instructions: 240000003 cycles: 148835228 heartbeat IPC: 0.942051 cumulative IPC: 0.938817 (Simulation time: 45 hr 25 min 10 sec) 
 Total Blocks : 262144 Invalid Blocks : 0
Heartbeat CPU 7 instructions: 240000003 cycles: 148863278 heartbeat IPC: 0.941168 cumulative IPC: 0.938199 (Simulation time: 45 hr 25 min 49 sec) 
 Total Blocks : 262144 Invalid Blocks : 0
Heartbeat CPU 3 instructions: 250000001 cycles: 159289526 heartbeat IPC: 0.948333 cumulative IPC: 0.942289 (Simulation time: 49 hr 7 min 53 sec) 
 Total Blocks : 262144 Invalid Blocks : 0
Heartbeat CPU 6 instructions: 250000001 cycles: 159331106 heartbeat IPC: 0.948781 cumulative IPC: 0.941559 (Simulation time: 49 hr 8 min 48 sec) 
 Total Blocks : 262144 Invalid Blocks : 0
Heartbeat CPU 1 instructions: 250000001 cycles: 159379418 heartbeat IPC: 0.948074 cumulative IPC: 0.940684 (Simulation time: 49 hr 9 min 50 sec) 
 Total Blocks : 262144 Invalid Blocks : 0
Heartbeat CPU 0 instructions: 250000001 cycles: 159389725 heartbeat IPC: 0.942837 cumulative IPC: 0.940466 (Simulation time: 49 hr 10 min 6 sec) 
 Total Blocks : 262144 Invalid Blocks : 0
Heartbeat CPU 5 instructions: 250000001 cycles: 159402155 heartbeat IPC: 0.946349 cumulative IPC: 0.940313 (Simulation time: 49 hr 10 min 24 sec) 
 Total Blocks : 262144 Invalid Blocks : 0
Heartbeat CPU 4 instructions: 250000001 cycles: 159445156 heartbeat IPC: 0.938949 cumulative IPC: 0.939539 (Simulation time: 49 hr 11 min 20 sec) 
 Total Blocks : 262144 Invalid Blocks : 0
Heartbeat CPU 7 instructions: 250000001 cycles: 159445834 heartbeat IPC: 0.944951 cumulative IPC: 0.939542 (Simulation time: 49 hr 11 min 20 sec) 
 Total Blocks : 262144 Invalid Blocks : 0
Heartbeat CPU 2 instructions: 250000001 cycles: 159473882 heartbeat IPC: 0.931973 cumulative IPC: 0.939032 (Simulation time: 49 hr 11 min 51 sec) 
 Total Blocks : 262144 Invalid Blocks : 0
Heartbeat CPU 3 instructions: 260000002 cycles: 169906728 heartbeat IPC: 0.941868 cumulative IPC: 0.942219 (Simulation time: 53 hr 1 min 5 sec) 
 Total Blocks : 262144 Invalid Blocks : 0
Heartbeat CPU 6 instructions: 260000002 cycles: 169996479 heartbeat IPC: 0.937614 cumulative IPC: 0.940899 (Simulation time: 53 hr 2 min 55 sec) 
 Total Blocks : 262144 Invalid Blocks : 0
Heartbeat CPU 5 instructions: 260000002 cycles: 170054339 heartbeat IPC: 0.938775 cumulative IPC: 0.940057 (Simulation time: 53 hr 3 min 58 sec) 
 Total Blocks : 262144 Invalid Blocks : 0
Heartbeat CPU 7 instructions: 260000002 cycles: 170079408 heartbeat IPC: 0.940418 cumulative IPC: 0.939687 (Simulation time: 53 hr 4 min 25 sec) 
 Total Blocks : 262144 Invalid Blocks : 0
Heartbeat CPU 1 instructions: 260000002 cycles: 170090586 heartbeat IPC: 0.933605 cumulative IPC: 0.939497 (Simulation time: 53 hr 4 min 46 sec) 
 Total Blocks : 262144 Invalid Blocks : 0
Heartbeat CPU 0 instructions: 260000002 cycles: 170104224 heartbeat IPC: 0.933315 cumulative IPC: 0.939266 (Simulation time: 53 hr 4 min 52 sec) 
 Total Blocks : 262144 Invalid Blocks : 0
Heartbeat CPU 2 instructions: 260000002 cycles: 170121010 heartbeat IPC: 0.93922 cumulative IPC: 0.939064 (Simulation time: 53 hr 5 min 27 sec) 
 Total Blocks : 262144 Invalid Blocks : 0
Heartbeat CPU 4 instructions: 260000002 cycles: 170126192 heartbeat IPC: 0.936239 cumulative IPC: 0.938987 (Simulation time: 53 hr 5 min 28 sec) 
 Total Blocks : 262144 Invalid Blocks : 0
Heartbeat CPU 6 instructions: 270000003 cycles: 180572539 heartbeat IPC: 0.945532 cumulative IPC: 0.941558 (Simulation time: 57 hr 2 min 36 sec) 
 Total Blocks : 262144 Invalid Blocks : 0
Heartbeat CPU 0 instructions: 270000003 cycles: 180580687 heartbeat IPC: 0.954521 cumulative IPC: 0.941416 (Simulation time: 57 hr 2 min 41 sec) 
 Total Blocks : 262144 Invalid Blocks : 0
Heartbeat CPU 2 instructions: 270000003 cycles: 180667744 heartbeat IPC: 0.948161 cumulative IPC: 0.940353 (Simulation time: 57 hr 4 min 35 sec) 
 Total Blocks : 262144 Invalid Blocks : 0
Heartbeat CPU 3 instructions: 270000003 cycles: 180675588 heartbeat IPC: 0.928603 cumulative IPC: 0.940249 (Simulation time: 57 hr 4 min 48 sec) 
 Total Blocks : 262144 Invalid Blocks : 0
Heartbeat CPU 5 instructions: 270000001 cycles: 180676495 heartbeat IPC: 0.941428 cumulative IPC: 0.940252 (Simulation time: 57 hr 4 min 48 sec) 
 Total Blocks : 262144 Invalid Blocks : 0
Heartbeat CPU 7 instructions: 270000003 cycles: 180704357 heartbeat IPC: 0.941181 cumulative IPC: 0.939901 (Simulation time: 57 hr 5 min 25 sec) 
 Total Blocks : 262144 Invalid Blocks : 0
Heartbeat CPU 1 instructions: 270000003 cycles: 180730710 heartbeat IPC: 0.939839 cumulative IPC: 0.939546 (Simulation time: 57 hr 6 min 4 sec) 
 Total Blocks : 262144 Invalid Blocks : 0
Heartbeat CPU 4 instructions: 270000003 cycles: 180806804 heartbeat IPC: 0.936276 cumulative IPC: 0.938599 (Simulation time: 57 hr 7 min 37 sec) 
 Total Blocks : 262144 Invalid Blocks : 0
Heartbeat CPU 0 instructions: 280000002 cycles: 191200593 heartbeat IPC: 0.941628 cumulative IPC: 0.941442 (Simulation time: 61 hr 4 min 1 sec) 
 Total Blocks : 262144 Invalid Blocks : 0
Heartbeat CPU 2 instructions: 280000002 cycles: 191253999 heartbeat IPC: 0.944621 cumulative IPC: 0.940884 (Simulation time: 61 hr 5 min 12 sec) 
 Total Blocks : 262144 Invalid Blocks : 0
Heartbeat CPU 7 instructions: 280000002 cycles: 191262950 heartbeat IPC: 0.947096 cumulative IPC: 0.940794 (Simulation time: 61 hr 5 min 35 sec) 
 Total Blocks : 262144 Invalid Blocks : 0
Heartbeat CPU 6 instructions: 280000002 cycles: 191288218 heartbeat IPC: 0.933212 cumulative IPC: 0.940507 (Simulation time: 61 hr 6 min 6 sec) 
 Total Blocks : 262144 Invalid Blocks : 0
Heartbeat CPU 3 instructions: 280000002 cycles: 191365335 heartbeat IPC: 0.935476 cumulative IPC: 0.93965 (Simulation time: 61 hr 7 min 53 sec) 
 Total Blocks : 262144 Invalid Blocks : 0
Heartbeat CPU 1 instructions: 280000002 cycles: 191411425 heartbeat IPC: 0.936267 cumulative IPC: 0.939134 (Simulation time: 61 hr 9 min 8 sec) 
 Total Blocks : 262144 Invalid Blocks : 0
Heartbeat CPU 5 instructions: 280000002 cycles: 191445388 heartbeat IPC: 0.928601 cumulative IPC: 0.93878 (Simulation time: 61 hr 9 min 53 sec) 
 Total Blocks : 262144 Invalid Blocks : 0
Heartbeat CPU 4 instructions: 280000002 cycles: 191470112 heartbeat IPC: 0.937795 cumulative IPC: 0.938499 (Simulation time: 61 hr 10 min 25 sec) 
 Total Blocks : 262144 Invalid Blocks : 0
Heartbeat CPU 0 instructions: 290000002 cycles: 201840939 heartbeat IPC: 0.939819 cumulative IPC: 0.941262 (Simulation time: 65 hr 23 min 49 sec) 
 Total Blocks : 262144 Invalid Blocks : 0
Heartbeat CPU 7 instructions: 290000002 cycles: 201857983 heartbeat IPC: 0.943838 cumulative IPC: 0.941131 (Simulation time: 65 hr 24 min 8 sec) 
 Total Blocks : 262144 Invalid Blocks : 0
Heartbeat CPU 2 instructions: 290000003 cycles: 201937646 heartbeat IPC: 0.93601 cumulative IPC: 0.94034 (Simulation time: 65 hr 26 min 8 sec) 
 Total Blocks : 262144 Invalid Blocks : 0
Heartbeat CPU 3 instructions: 290000001 cycles: 201937745 heartbeat IPC: 0.945858 cumulative IPC: 0.940336 (Simulation time: 65 hr 26 min 8 sec) 
 Total Blocks : 262144 Invalid Blocks : 0
Heartbeat CPU 6 instructions: 290000002 cycles: 201970986 heartbeat IPC: 0.936087 cumulative IPC: 0.940014 (Simulation time: 65 hr 26 min 50 sec) 
 Total Blocks : 262144 Invalid Blocks : 0
Heartbeat CPU 4 instructions: 290000002 cycles: 202072568 heartbeat IPC: 0.943178 cumulative IPC: 0.939016 (Simulation time: 65 hr 29 min 19 sec) 
 Total Blocks : 262144 Invalid Blocks : 0
Heartbeat CPU 5 instructions: 290000002 cycles: 202098647 heartbeat IPC: 0.93868 cumulative IPC: 0.938769 (Simulation time: 65 hr 29 min 55 sec) 
 Total Blocks : 262144 Invalid Blocks : 0
Heartbeat CPU 1 instructions: 290000001 cycles: 202113949 heartbeat IPC: 0.934359 cumulative IPC: 0.938601 (Simulation time: 65 hr 30 min 23 sec) 
 Total Blocks : 262144 Invalid Blocks : 0
Heartbeat CPU 0 instructions: 300000001 cycles: 212425942 heartbeat IPC: 0.944733 cumulative IPC: 0.941608 (Simulation time: 69 hr 12 min 55 sec) 
 Total Blocks : 262144 Invalid Blocks : 0
Heartbeat CPU 7 instructions: 300000001 cycles: 212460143 heartbeat IPC: 0.943204 cumulative IPC: 0.941338 (Simulation time: 69 hr 13 min 44 sec) 
 Total Blocks : 262144 Invalid Blocks : 0
Heartbeat CPU 2 instructions: 300000001 cycles: 212516676 heartbeat IPC: 0.945266 cumulative IPC: 0.94083 (Simulation time: 69 hr 14 min 56 sec) 
 Total Blocks : 262144 Invalid Blocks : 0
Heartbeat CPU 6 instructions: 300000001 cycles: 212575577 heartbeat IPC: 0.942988 cumulative IPC: 0.94031 (Simulation time: 69 hr 16 min 4 sec) 
 Total Blocks : 262144 Invalid Blocks : 0
Heartbeat CPU 3 instructions: 300000001 cycles: 212593627 heartbeat IPC: 0.938449 cumulative IPC: 0.940147 (Simulation time: 69 hr 16 min 26 sec) 
 Total Blocks : 262144 Invalid Blocks : 0
Heartbeat CPU 1 instructions: 300000001 cycles: 212719550 heartbeat IPC: 0.942898 cumulative IPC: 0.939029 (Simulation time: 69 hr 19 min 3 sec) 
 Total Blocks : 262144 Invalid Blocks : 0
Heartbeat CPU 4 instructions: 300000001 cycles: 212740439 heartbeat IPC: 0.937394 cumulative IPC: 0.938854 (Simulation time: 69 hr 19 min 26 sec) 
 Total Blocks : 262144 Invalid Blocks : 0
Heartbeat CPU 5 instructions: 300000001 cycles: 212777274 heartbeat IPC: 0.93645 cumulative IPC: 0.938536 (Simulation time: 69 hr 20 min 14 sec) 
 Total Blocks : 262144 Invalid Blocks : 0
Heartbeat CPU 7 instructions: 310000001 cycles: 223065266 heartbeat IPC: 0.94294 cumulative IPC: 0.941484 (Simulation time: 72 hr 57 min 25 sec) 
 Total Blocks : 262144 Invalid Blocks : 0
Heartbeat CPU 0 instructions: 310000001 cycles: 223118810 heartbeat IPC: 0.935203 cumulative IPC: 0.941022 (Simulation time: 72 hr 58 min 29 sec) 
 Total Blocks : 262144 Invalid Blocks : 0
Heartbeat CPU 2 instructions: 310000001 cycles: 223122422 heartbeat IPC: 0.942885 cumulative IPC: 0.941017 (Simulation time: 72 hr 58 min 31 sec) 
 Total Blocks : 262144 Invalid Blocks : 0
Heartbeat CPU 6 instructions: 310000001 cycles: 223144027 heartbeat IPC: 0.946213 cumulative IPC: 0.940844 (Simulation time: 72 hr 59 min 5 sec) 
 Total Blocks : 262144 Invalid Blocks : 0
Heartbeat CPU 3 instructions: 310000001 cycles: 223156798 heartbeat IPC: 0.946685 cumulative IPC: 0.940737 (Simulation time: 72 hr 59 min 26 sec) 
 Total Blocks : 262144 Invalid Blocks : 0
Heartbeat CPU 1 instructions: 310000001 cycles: 223310159 heartbeat IPC: 0.944233 cumulative IPC: 0.9395 (Simulation time: 73 hr 2 min 39 sec) 
 Total Blocks : 262144 Invalid Blocks : 0
Heartbeat CPU 5 instructions: 310000001 cycles: 223381960 heartbeat IPC: 0.942979 cumulative IPC: 0.938939 (Simulation time: 73 hr 4 min 12 sec) 
 Total Blocks : 262144 Invalid Blocks : 0
Heartbeat CPU 4 instructions: 310000001 cycles: 223392876 heartbeat IPC: 0.938752 cumulative IPC: 0.938845 (Simulation time: 73 hr 4 min 29 sec) 
 Total Blocks : 262144 Invalid Blocks : 0
Heartbeat CPU 6 instructions: 320000003 cycles: 233720527 heartbeat IPC: 0.945493 cumulative IPC: 0.941229 (Simulation time: 76 hr 44 min 29 sec) 
 Total Blocks : 262144 Invalid Blocks : 0
Heartbeat CPU 0 instructions: 320000003 cycles: 233801669 heartbeat IPC: 0.936079 cumulative IPC: 0.940608 (Simulation time: 76 hr 46 min 15 sec) 
 Total Blocks : 262144 Invalid Blocks : 0
Heartbeat CPU 2 instructions: 320000003 cycles: 233812061 heartbeat IPC: 0.935485 cumulative IPC: 0.940553 (Simulation time: 76 hr 46 min 24 sec) 
 Total Blocks : 262144 Invalid Blocks : 0
Heartbeat CPU 7 instructions: 320000003 cycles: 233815378 heartbeat IPC: 0.930223 cumulative IPC: 0.940535 (Simulation time: 76 hr 46 min 28 sec) 
 Total Blocks : 262144 Invalid Blocks : 0
Heartbeat CPU 3 instructions: 320000003 cycles: 233847533 heartbeat IPC: 0.93539 cumulative IPC: 0.940289 (Simulation time: 76 hr 47 min 6 sec) 
 Total Blocks : 262144 Invalid Blocks : 0
Heartbeat CPU 1 instructions: 320000003 cycles: 233986915 heartbeat IPC: 0.936614 cumulative IPC: 0.939259 (Simulation time: 76 hr 49 min 54 sec) 
 Total Blocks : 262144 Invalid Blocks : 0
Heartbeat CPU 4 instructions: 320000003 cycles: 234077467 heartbeat IPC: 0.935927 cumulative IPC: 0.938601 (Simulation time: 76 hr 51 min 41 sec) 
 Total Blocks : 262144 Invalid Blocks : 0
Heartbeat CPU 5 instructions: 320000003 cycles: 234097045 heartbeat IPC: 0.933264 cumulative IPC: 0.938463 (Simulation time: 76 hr 52 min 13 sec) 
 Total Blocks : 262144 Invalid Blocks : 0
Heartbeat CPU 6 instructions: 330000000 cycles: 244320997 heartbeat IPC: 0.943354 cumulative IPC: 0.941393 (Simulation time: 80 hr 37 min 46 sec) 
 Total Blocks : 262144 Invalid Blocks : 0
Heartbeat CPU 7 instructions: 330000000 cycles: 244416123 heartbeat IPC: 0.94333 cumulative IPC: 0.940749 (Simulation time: 80 hr 39 min 51 sec) 
 Total Blocks : 262144 Invalid Blocks : 0
Heartbeat CPU 0 instructions: 330000000 cycles: 244426674 heartbeat IPC: 0.941176 cumulative IPC: 0.940651 (Simulation time: 80 hr 40 min 13 sec) 
 Total Blocks : 262144 Invalid Blocks : 0
Heartbeat CPU 2 instructions: 330000000 cycles: 244463134 heartbeat IPC: 0.938872 cumulative IPC: 0.940424 (Simulation time: 80 hr 41 min 2 sec) 
 Total Blocks : 262144 Invalid Blocks : 0
Heartbeat CPU 3 instructions: 330000000 cycles: 244464479 heartbeat IPC: 0.94189 cumulative IPC: 0.940412 (Simulation time: 80 hr 41 min 4 sec) 
 Total Blocks : 262144 Invalid Blocks : 0
Heartbeat CPU 1 instructions: 330000000 cycles: 244509007 heartbeat IPC: 0.950381 cumulative IPC: 0.940105 (Simulation time: 80 hr 41 min 49 sec) 
 Total Blocks : 262144 Invalid Blocks : 0
Heartbeat CPU 5 instructions: 330000000 cycles: 244762130 heartbeat IPC: 0.937639 cumulative IPC: 0.9384 (Simulation time: 80 hr 47 min 36 sec) 
 Total Blocks : 262144 Invalid Blocks : 0
Heartbeat CPU 4 instructions: 330000000 cycles: 244767318 heartbeat IPC: 0.935466 cumulative IPC: 0.938359 (Simulation time: 80 hr 47 min 41 sec) 
 Total Blocks : 262144 Invalid Blocks : 0
Heartbeat CPU 6 instructions: 340000002 cycles: 255021959 heartbeat IPC: 0.934496 cumulative IPC: 0.940897 (Simulation time: 84 hr 39 min 5 sec) 
 Total Blocks : 262144 Invalid Blocks : 0
Heartbeat CPU 1 instructions: 340000002 cycles: 255085597 heartbeat IPC: 0.945485 cumulative IPC: 0.940487 (Simulation time: 84 hr 40 min 38 sec) 
 Total Blocks : 262144 Invalid Blocks : 0
Heartbeat CPU 2 instructions: 340000002 cycles: 255118376 heartbeat IPC: 0.938505 cumulative IPC: 0.940286 (Simulation time: 84 hr 41 min 22 sec) 
 Total Blocks : 262144 Invalid Blocks : 0
Heartbeat CPU 0 instructions: 340000002 cycles: 255166764 heartbeat IPC: 0.931091 cumulative IPC: 0.939962 (Simulation time: 84 hr 42 min 29 sec) 
 Total Blocks : 262144 Invalid Blocks : 0
Heartbeat CPU 7 instructions: 340000002 cycles: 255213959 heartbeat IPC: 0.926112 cumulative IPC: 0.939688 (Simulation time: 84 hr 43 min 36 sec) 
 Total Blocks : 262144 Invalid Blocks : 0
Heartbeat CPU 3 instructions: 340000002 cycles: 255232973 heartbeat IPC: 0.928635 cumulative IPC: 0.939561 (Simulation time: 84 hr 43 min 53 sec) 
 Total Blocks : 262144 Invalid Blocks : 0
Heartbeat CPU 4 instructions: 340000002 cycles: 255394095 heartbeat IPC: 0.941019 cumulative IPC: 0.938548 (Simulation time: 84 hr 47 min 29 sec) 
 Total Blocks : 262144 Invalid Blocks : 0
Heartbeat CPU 5 instructions: 340000002 cycles: 255536845 heartbeat IPC: 0.928099 cumulative IPC: 0.937656 (Simulation time: 84 hr 50 min 47 sec) 
 Total Blocks : 262144 Invalid Blocks : 0
Heartbeat CPU 6 instructions: 350000000 cycles: 265609262 heartbeat IPC: 0.944527 cumulative IPC: 0.941138 (Simulation time: 88 hr 45 min 51 sec) 
 Total Blocks : 262144 Invalid Blocks : 0
Heartbeat CPU 1 instructions: 350000000 cycles: 265750904 heartbeat IPC: 0.937619 cumulative IPC: 0.940296 (Simulation time: 88 hr 49 min 15 sec) 
 Total Blocks : 262144 Invalid Blocks : 0
Heartbeat CPU 2 instructions: 350000000 cycles: 265756613 heartbeat IPC: 0.940005 cumulative IPC: 0.940268 (Simulation time: 88 hr 49 min 17 sec) 
 Total Blocks : 262144 Invalid Blocks : 0
Heartbeat CPU 7 instructions: 350000000 cycles: 265814420 heartbeat IPC: 0.943355 cumulative IPC: 0.939932 (Simulation time: 88 hr 50 min 36 sec) 
 Total Blocks : 262144 Invalid Blocks : 0
Heartbeat CPU 0 instructions: 350000000 cycles: 265920681 heartbeat IPC: 0.929894 cumulative IPC: 0.939284 (Simulation time: 88 hr 53 min 15 sec) 
 Total Blocks : 262144 Invalid Blocks : 0
Heartbeat CPU 3 instructions: 350000000 cycles: 265981603 heartbeat IPC: 0.930351 cumulative IPC: 0.938941 (Simulation time: 88 hr 54 min 49 sec) 
 Total Blocks : 262144 Invalid Blocks : 0
Heartbeat CPU 4 instructions: 350000000 cycles: 266086761 heartbeat IPC: 0.93522 cumulative IPC: 0.938326 (Simulation time: 88 hr 57 min 10 sec) 
 Total Blocks : 262144 Invalid Blocks : 0
Heartbeat CPU 5 instructions: 350000000 cycles: 266271972 heartbeat IPC: 0.931521 cumulative IPC: 0.937245 (Simulation time: 89 hr 1 min 39 sec) 
 Total Blocks : 262144 Invalid Blocks : 0
Heartbeat CPU 6 instructions: 360000002 cycles: 276254985 heartbeat IPC: 0.939345 cumulative IPC: 0.941025 (Simulation time: 93 hr 2 min 32 sec) 
 Total Blocks : 262144 Invalid Blocks : 0
Heartbeat CPU 2 instructions: 360000002 cycles: 276411467 heartbeat IPC: 0.93854 cumulative IPC: 0.940159 (Simulation time: 93 hr 6 min 23 sec) 
 Total Blocks : 262144 Invalid Blocks : 0
Heartbeat CPU 1 instructions: 360000002 cycles: 276457201 heartbeat IPC: 0.93403 cumulative IPC: 0.939902 (Simulation time: 93 hr 7 min 39 sec) 
 Total Blocks : 262144 Invalid Blocks : 0
Heartbeat CPU 7 instructions: 360000002 cycles: 276506061 heartbeat IPC: 0.93531 cumulative IPC: 0.939642 (Simulation time: 93 hr 8 min 46 sec) 
 Total Blocks : 262144 Invalid Blocks : 0
Heartbeat CPU 3 instructions: 360000002 cycles: 276593817 heartbeat IPC: 0.942311 cumulative IPC: 0.939151 (Simulation time: 93 hr 10 min 54 sec) 
 Total Blocks : 262144 Invalid Blocks : 0
Heartbeat CPU 0 instructions: 360000002 cycles: 276599681 heartbeat IPC: 0.936417 cumulative IPC: 0.939104 (Simulation time: 93 hr 11 min 5 sec) 
 Total Blocks : 262144 Invalid Blocks : 0
Heartbeat CPU 4 instructions: 360000002 cycles: 276693272 heartbeat IPC: 0.942817 cumulative IPC: 0.938605 (Simulation time: 93 hr 13 min 30 sec) 
 Total Blocks : 262144 Invalid Blocks : 0
Heartbeat CPU 5 instructions: 360000002 cycles: 276920156 heartbeat IPC: 0.939127 cumulative IPC: 0.937362 (Simulation time: 93 hr 19 min 9 sec) 
 Total Blocks : 262144 Invalid Blocks : 0
Heartbeat CPU 6 instructions: 370000002 cycles: 286854152 heartbeat IPC: 0.94347 cumulative IPC: 0.941169 (Simulation time: 97 hr 23 min 58 sec) 
 Total Blocks : 262144 Invalid Blocks : 0
Heartbeat CPU 2 instructions: 370000002 cycles: 287087673 heartbeat IPC: 0.936662 cumulative IPC: 0.939953 (Simulation time: 97 hr 29 min 41 sec) 
 Total Blocks : 262144 Invalid Blocks : 0
Heartbeat CPU 1 instructions: 370000002 cycles: 287106269 heartbeat IPC: 0.939049 cumulative IPC: 0.939851 (Simulation time: 97 hr 30 min 12 sec) 
 Total Blocks : 262144 Invalid Blocks : 0
Heartbeat CPU 7 instructions: 370000002 cycles: 287198537 heartbeat IPC: 0.935237 cumulative IPC: 0.939381 (Simulation time: 97 hr 32 min 32 sec) 
 Total Blocks : 262144 Invalid Blocks : 0
Heartbeat CPU 3 instructions: 370000002 cycles: 287251435 heartbeat IPC: 0.938296 cumulative IPC: 0.939101 (Simulation time: 97 hr 33 min 59 sec) 
 Total Blocks : 262144 Invalid Blocks : 0
Heartbeat CPU 0 instructions: 370000002 cycles: 287412681 heartbeat IPC: 0.924813 cumulative IPC: 0.938251 (Simulation time: 97 hr 37 min 57 sec) 
 Total Blocks : 262144 Invalid Blocks : 0
Heartbeat CPU 4 instructions: 370000002 cycles: 287467525 heartbeat IPC: 0.928139 cumulative IPC: 0.937983 (Simulation time: 97 hr 39 min 22 sec) 
 Total Blocks : 262144 Invalid Blocks : 0
Heartbeat CPU 5 instructions: 370000002 cycles: 287648192 heartbeat IPC: 0.932137 cumulative IPC: 0.937053 (Simulation time: 97 hr 44 min 0 sec) 
 Total Blocks : 262144 Invalid Blocks : 0
Heartbeat CPU 6 instructions: 380000000 cycles: 297594326 heartbeat IPC: 0.931083 cumulative IPC: 0.940603 (Simulation time: 101 hr 56 min 8 sec) 
 Total Blocks : 262144 Invalid Blocks : 0
Heartbeat CPU 2 instructions: 380000000 cycles: 297747584 heartbeat IPC: 0.938094 cumulative IPC: 0.93985 (Simulation time: 102 hr 0 min 11 sec) 
 Total Blocks : 262144 Invalid Blocks : 0
Heartbeat CPU 1 instructions: 380000000 cycles: 297797191 heartbeat IPC: 0.935373 cumulative IPC: 0.939601 (Simulation time: 102 hr 1 min 31 sec) 
 Total Blocks : 262144 Invalid Blocks : 0
Heartbeat CPU 7 instructions: 380000000 cycles: 297897853 heartbeat IPC: 0.934639 cumulative IPC: 0.939117 (Simulation time: 102 hr 3 min 58 sec) 
 Total Blocks : 262144 Invalid Blocks : 0
Heartbeat CPU 3 instructions: 380000000 cycles: 297939700 heartbeat IPC: 0.935605 cumulative IPC: 0.938906 (Simulation time: 102 hr 5 min 7 sec) 
 Total Blocks : 262144 Invalid Blocks : 0
Heartbeat CPU 4 instructions: 380000000 cycles: 298093567 heartbeat IPC: 0.941084 cumulative IPC: 0.938155 (Simulation time: 102 hr 9 min 5 sec) 
 Total Blocks : 262144 Invalid Blocks : 0
Heartbeat CPU 0 instructions: 380000000 cycles: 298119537 heartbeat IPC: 0.933981 cumulative IPC: 0.938013 (Simulation time: 102 hr 9 min 48 sec) 
 Total Blocks : 262144 Invalid Blocks : 0
Heartbeat CPU 5 instructions: 380000000 cycles: 298407291 heartbeat IPC: 0.929446 cumulative IPC: 0.936627 (Simulation time: 102 hr 16 min 57 sec) 
 Total Blocks : 262144 Invalid Blocks : 0
Heartbeat CPU 6 instructions: 390000003 cycles: 308325140 heartbeat IPC: 0.931896 cumulative IPC: 0.940141 (Simulation time: 106 hr 33 min 43 sec) 
 Total Blocks : 262144 Invalid Blocks : 0
Heartbeat CPU 2 instructions: 390000003 cycles: 308370349 heartbeat IPC: 0.941375 cumulative IPC: 0.93993 (Simulation time: 106 hr 34 min 50 sec) 
 Total Blocks : 262144 Invalid Blocks : 0
Heartbeat CPU 1 instructions: 390000003 cycles: 308439846 heartbeat IPC: 0.939615 cumulative IPC: 0.939602 (Simulation time: 106 hr 36 min 46 sec) 
 Total Blocks : 262144 Invalid Blocks : 0
Heartbeat CPU 3 instructions: 390000003 cycles: 308535625 heartbeat IPC: 0.943759 cumulative IPC: 0.93916 (Simulation time: 106 hr 39 min 20 sec) 
 Total Blocks : 262144 Invalid Blocks : 0
Heartbeat CPU 7 instructions: 390000003 cycles: 308621498 heartbeat IPC: 0.932519 cumulative IPC: 0.938767 (Simulation time: 106 hr 41 min 23 sec) 
 Total Blocks : 262144 Invalid Blocks : 0
Heartbeat CPU 0 instructions: 390000003 cycles: 308835213 heartbeat IPC: 0.933213 cumulative IPC: 0.937759 (Simulation time: 106 hr 46 min 44 sec) 
 Total Blocks : 262144 Invalid Blocks : 0
Heartbeat CPU 4 instructions: 390000003 cycles: 308874515 heartbeat IPC: 0.927562 cumulative IPC: 0.937591 (Simulation time: 106 hr 47 min 45 sec) 
 Total Blocks : 262144 Invalid Blocks : 0
Heartbeat CPU 5 instructions: 390000003 cycles: 309121332 heartbeat IPC: 0.933355 cumulative IPC: 0.936454 (Simulation time: 106 hr 54 min 29 sec) 
 Total Blocks : 262144 Invalid Blocks : 0
Heartbeat CPU 6 instructions: 400000003 cycles: 318940325 heartbeat IPC: 0.942047 cumulative IPC: 0.940236 (Simulation time: 111 hr 17 min 18 sec) 
 Total Blocks : 262144 Invalid Blocks : 0
Finished CPU 6 instructions: 200000000 cycles: 212713567 cumulative IPC: 0.940232 (Simulation time: 111 hr 17 min 18 sec) 
Heartbeat CPU 2 instructions: 400000003 cycles: 319007517 heartbeat IPC: 0.9401 cumulative IPC: 0.939938 (Simulation time: 111 hr 19 min 1 sec) 
 Total Blocks : 262144 Invalid Blocks : 0
Finished CPU 2 instructions: 200000002 cycles: 212781105 cumulative IPC: 0.939933 (Simulation time: 111 hr 19 min 6 sec) 
Heartbeat CPU 3 instructions: 400000003 cycles: 319133041 heartbeat IPC: 0.943626 cumulative IPC: 0.939383 (Simulation time: 111 hr 22 min 30 sec) 
 Total Blocks : 262144 Invalid Blocks : 0
Finished CPU 3 instructions: 200000003 cycles: 212905565 cumulative IPC: 0.939384 (Simulation time: 111 hr 22 min 30 sec) 
Heartbeat CPU 1 instructions: 400000003 cycles: 319182236 heartbeat IPC: 0.930892 cumulative IPC: 0.939163 (Simulation time: 111 hr 23 min 43 sec) 
 Total Blocks : 262144 Invalid Blocks : 0
Finished CPU 1 instructions: 200000003 cycles: 212955051 cumulative IPC: 0.939165 (Simulation time: 111 hr 23 min 44 sec) 
Heartbeat CPU 7 instructions: 400000003 cycles: 319247745 heartbeat IPC: 0.941066 cumulative IPC: 0.938882 (Simulation time: 111 hr 25 min 38 sec) 
 Total Blocks : 262144 Invalid Blocks : 0
Finished CPU 7 instructions: 200000002 cycles: 213019356 cumulative IPC: 0.938882 (Simulation time: 111 hr 25 min 38 sec) 
Heartbeat CPU 4 instructions: 400000003 cycles: 319506824 heartbeat IPC: 0.940529 cumulative IPC: 0.937738 (Simulation time: 111 hr 32 min 39 sec) 
 Total Blocks : 262144 Invalid Blocks : 0
Finished CPU 4 instructions: 200000002 cycles: 213279338 cumulative IPC: 0.937737 (Simulation time: 111 hr 32 min 39 sec) 
Heartbeat CPU 0 instructions: 400000003 cycles: 319521050 heartbeat IPC: 0.935818 cumulative IPC: 0.937662 (Simulation time: 111 hr 32 min 57 sec) 
 Total Blocks : 262144 Invalid Blocks : 0
Finished CPU 0 instructions: 200000001 cycles: 213300697 cumulative IPC: 0.937643 (Simulation time: 111 hr 33 min 14 sec) 
Heartbeat CPU 5 instructions: 400000003 cycles: 319678108 heartbeat IPC: 0.947259 cumulative IPC: 0.936989 (Simulation time: 111 hr 37 min 19 sec) 
 Total Blocks : 262144 Invalid Blocks : 0
Finished CPU 5 instructions: 200000000 cycles: 213449714 cumulative IPC: 0.936989 (Simulation time: 111 hr 37 min 19 sec) 

CPU 0 Branch Prediction Accuracy: 81.2318% MPKI: 4.68473 Average ROB Occupancy at Mispredict: 210.801

CPU 1 Branch Prediction Accuracy: 81.2318% MPKI: 4.68478 Average ROB Occupancy at Mispredict: 210.831

CPU 2 Branch Prediction Accuracy: 81.2318% MPKI: 4.6848 Average ROB Occupancy at Mispredict: 210.795

CPU 3 Branch Prediction Accuracy: 81.2318% MPKI: 4.68479 Average ROB Occupancy at Mispredict: 210.809

CPU 4 Branch Prediction Accuracy: 81.2318% MPKI: 4.68479 Average ROB Occupancy at Mispredict: 210.835

CPU 5 Branch Prediction Accuracy: 81.2318% MPKI: 4.68481 Average ROB Occupancy at Mispredict: 210.829

CPU 6 Branch Prediction Accuracy: 81.2318% MPKI: 4.68479 Average ROB Occupancy at Mispredict: 210.782

CPU 7 Branch Prediction Accuracy: 81.2318% MPKI: 4.68481 Average ROB Occupancy at Mispredict: 210.809

ChampSim completed all CPUs

Total Simulation Statistics (not including warmup)

CPU 0 cumulative IPC: 0.937624 instructions: 200135550 cycles: 213449714
ITLB TOTAL     ACCESS: 17971300  HIT: 17971300  MISS:     0  HIT %:   100  MISS %:     0  AVERAGE MISS PENALTY: 0
ITLB LOAD      ACCESS: 17971300  HIT: 17971300  MISS:     0  HIT %:   100  MISS %:     0  AVERAGE MISS PENALTY: 0
ITLB RFO       ACCESS:     0  HIT:     0  MISS:     0  HIT %:     0  MISS %:     0  AVERAGE MISS PENALTY: 0
ITLB PREFETCH  ACCESS:     0  HIT:     0  MISS:     0  HIT %:     0  MISS %:     0  AVERAGE MISS PENALTY: 0
ITLB WRITEBACK ACCESS:     0  HIT:     0  MISS:     0  HIT %:     0  MISS %:     0  AVERAGE MISS PENALTY: 0

DTLB TOTAL     ACCESS: 64692963  HIT: 64574421  MISS: 118542  HIT %: 99.8168  MISS %: 0.183238  AVERAGE MISS PENALTY: 215.159
DTLB LOAD      ACCESS: 59706987  HIT: 59602116  MISS: 104871  HIT %: 99.8244  MISS %: 0.175643  AVERAGE MISS PENALTY: 240.581
DTLB RFO       ACCESS: 4985976  HIT: 4972305  MISS: 13671  HIT %: 99.7258  MISS %: 0.274189  AVERAGE MISS PENALTY: 20.1478
DTLB PREFETCH  ACCESS:     0  HIT:     0  MISS:     0  HIT %:     0  MISS %:     0  AVERAGE MISS PENALTY: 0
DTLB WRITEBACK ACCESS:     0  HIT:     0  MISS:     0  HIT %:     0  MISS %:     0  AVERAGE MISS PENALTY: 0

STLB TOTAL     ACCESS: 118542  HIT: 59113  MISS: 59429  HIT %: 49.8667  MISS %: 50.1333  AVERAGE MISS PENALTY: 100
STLB LOAD      ACCESS: 104871  HIT: 46966  MISS: 57905  HIT %: 44.7845  MISS %: 55.2155  AVERAGE MISS PENALTY: 100
STLB RFO       ACCESS: 13671  HIT: 12147  MISS:  1524  HIT %: 88.8523  MISS %: 11.1477  AVERAGE MISS PENALTY: 100
STLB PREFETCH  ACCESS:     0  HIT:     0  MISS:     0  HIT %:     0  MISS %:     0  AVERAGE MISS PENALTY: 0
STLB WRITEBACK ACCESS:     0  HIT:     0  MISS:     0  HIT %:     0  MISS %:     0  AVERAGE MISS PENALTY: 0

L1D TOTAL     ACCESS: 98928722  HIT: 94927559  MISS: 4001163  HIT %: 95.9555  MISS %: 4.04449  AVERAGE MISS PENALTY: 2.21304e+07
L1D LOAD      ACCESS: 59746035  HIT: 59128217  MISS: 617818  HIT %: 98.9659  MISS %: 1.03407  AVERAGE MISS PENALTY: 1.43322e+08
L1D RFO       ACCESS: 10910797  HIT: 10813283  MISS: 97514  HIT %: 99.1063  MISS %: 0.893739  AVERAGE MISS PENALTY: 570.783
L1D PREFETCH  ACCESS: 28271890  HIT: 24986059  MISS: 3285831  HIT %: 88.3777  MISS %: 11.6223  AVERAGE MISS PENALTY: 180.28
L1D WRITEBACK ACCESS:     0  HIT:     0  MISS:     0  HIT %:     0  MISS %:     0  AVERAGE MISS PENALTY: 0

L1I TOTAL     ACCESS: 30150574  HIT: 30150574  MISS:     0  HIT %:   100  MISS %:     0  AVERAGE MISS PENALTY: 0
L1I LOAD      ACCESS: 30150574  HIT: 30150574  MISS:     0  HIT %:   100  MISS %:     0  AVERAGE MISS PENALTY: 0
L1I RFO       ACCESS:     0  HIT:     0  MISS:     0  HIT %:     0  MISS %:     0  AVERAGE MISS PENALTY: 0
L1I PREFETCH  ACCESS:     0  HIT:     0  MISS:     0  HIT %:     0  MISS %:     0  AVERAGE MISS PENALTY: 0
L1I WRITEBACK ACCESS:     0  HIT:     0  MISS:     0  HIT %:     0  MISS %:     0  AVERAGE MISS PENALTY: 0

L2C TOTAL     ACCESS: 6992524  HIT: 3189410  MISS: 3803114  HIT %: 45.6117  MISS %: 54.3883  AVERAGE MISS PENALTY: 2.04447e+07
L2C LOAD      ACCESS: 596802  HIT: 126572  MISS: 470230  HIT %: 21.2084  MISS %: 78.7916  AVERAGE MISS PENALTY: 1.65348e+08
L2C RFO       ACCESS: 97514  HIT:     0  MISS: 97514  HIT %:     0  MISS %:   100  AVERAGE MISS PENALTY: 553.867
L2C PREFETCH  ACCESS: 6199210  HIT: 2963840  MISS: 3235370  HIT %: 47.81  MISS %: 52.19  AVERAGE MISS PENALTY: 500.421
L2C WRITEBACK ACCESS: 98998  HIT: 98998  MISS:     0  HIT %:   100  MISS %:     0  AVERAGE MISS PENALTY: 0


LLC0 TOTAL     ACCESS: 487560  HIT:  9577  MISS: 477983  HIT %: 1.96427  MISS %: 98.0357  AVERAGE MISS PENALTY: 445.7
LLC0 LOAD      ACCESS: 63626  HIT:     0  MISS: 63626  HIT %:     0  MISS %:   100  AVERAGE MISS PENALTY: 546.168
LLC0 RFO       ACCESS: 12189  HIT:     0  MISS: 12189  HIT %:     0  MISS %:   100  AVERAGE MISS PENALTY: 456.538
LLC0 PREFETCH  ACCESS: 399568  HIT:     2  MISS: 399566  HIT %: 0.000500541  MISS %: 99.9995  AVERAGE MISS PENALTY: 432.273
LLC0 WRITEBACK ACCESS: 12177  HIT:  9575  MISS:  2602  HIT %: 78.6318  MISS %: 21.3682  AVERAGE MISS PENALTY: 0

LLC1 TOTAL     ACCESS: 487563  HIT:  9583  MISS: 477980  HIT %: 1.96549  MISS %: 98.0345  AVERAGE MISS PENALTY: 444.47
LLC1 LOAD      ACCESS: 19983  HIT:     0  MISS: 19983  HIT %:     0  MISS %:   100  AVERAGE MISS PENALTY: 550.86
LLC1 RFO       ACCESS: 12189  HIT:     0  MISS: 12189  HIT %:     0  MISS %:   100  AVERAGE MISS PENALTY: 460.838
LLC1 PREFETCH  ACCESS: 443214  HIT:     0  MISS: 443214  HIT %:     0  MISS %:   100  AVERAGE MISS PENALTY: 441.825
LLC1 WRITEBACK ACCESS: 12177  HIT:  9583  MISS:  2594  HIT %: 78.6975  MISS %: 21.3025  AVERAGE MISS PENALTY: 0

LLC2 TOTAL     ACCESS: 487558  HIT:  9578  MISS: 477980  HIT %: 1.96448  MISS %: 98.0355  AVERAGE MISS PENALTY: 536.207
LLC2 LOAD      ACCESS:  5969  HIT:     0  MISS:  5969  HIT %:     0  MISS %:   100  AVERAGE MISS PENALTY: 451.478
LLC2 RFO       ACCESS: 12190  HIT:     0  MISS: 12190  HIT %:     0  MISS %:   100  AVERAGE MISS PENALTY: 464.085
LLC2 PREFETCH  ACCESS: 457222  HIT:     0  MISS: 457222  HIT %:     0  MISS %:   100  AVERAGE MISS PENALTY: 542.284
LLC2 WRITEBACK ACCESS: 12177  HIT:  9578  MISS:  2599  HIT %: 78.6565  MISS %: 21.3435  AVERAGE MISS PENALTY: 0

LLC3 TOTAL     ACCESS: 487570  HIT:  9694  MISS: 477876  HIT %: 1.98823  MISS %: 98.0118  AVERAGE MISS PENALTY: 522.97
LLC3 LOAD      ACCESS:  6582  HIT:     0  MISS:  6582  HIT %:     0  MISS %:   100  AVERAGE MISS PENALTY: 442.69
LLC3 RFO       ACCESS: 12190  HIT:     0  MISS: 12190  HIT %:     0  MISS %:   100  AVERAGE MISS PENALTY: 464.138
LLC3 PREFETCH  ACCESS: 456621  HIT:     2  MISS: 456619  HIT %: 0.000438  MISS %: 99.9996  AVERAGE MISS PENALTY: 528.544
LLC3 WRITEBACK ACCESS: 12177  HIT:  9692  MISS:  2485  HIT %: 79.5927  MISS %: 20.4073  AVERAGE MISS PENALTY: 0

LLC4 TOTAL     ACCESS: 487579  HIT:  9643  MISS: 477936  HIT %: 1.97773  MISS %: 98.0223  AVERAGE MISS PENALTY: 452.284
LLC4 LOAD      ACCESS:  6512  HIT:     0  MISS:  6512  HIT %:     0  MISS %:   100  AVERAGE MISS PENALTY: 581.228
LLC4 RFO       ACCESS: 12189  HIT:     0  MISS: 12189  HIT %:     0  MISS %:   100  AVERAGE MISS PENALTY: 516.965
LLC4 PREFETCH  ACCESS: 456690  HIT:     1  MISS: 456689  HIT %: 0.000218967  MISS %: 99.9998  AVERAGE MISS PENALTY: 451.24
LLC4 WRITEBACK ACCESS: 12188  HIT:  9642  MISS:  2546  HIT %: 79.1106  MISS %: 20.8894  AVERAGE MISS PENALTY: 0

LLC5 TOTAL     ACCESS: 487576  HIT:  9674  MISS: 477902  HIT %: 1.9841  MISS %: 98.0159  AVERAGE MISS PENALTY: 451.598
LLC5 LOAD      ACCESS:  6000  HIT:     0  MISS:  6000  HIT %:     0  MISS %:   100  AVERAGE MISS PENALTY: 584.802
LLC5 RFO       ACCESS: 12189  HIT:     0  MISS: 12189  HIT %:     0  MISS %:   100  AVERAGE MISS PENALTY: 766.042
LLC5 PREFETCH  ACCESS: 457201  HIT:     1  MISS: 457200  HIT %: 0.000218722  MISS %: 99.9998  AVERAGE MISS PENALTY: 443.949
LLC5 WRITEBACK ACCESS: 12186  HIT:  9673  MISS:  2513  HIT %: 79.378  MISS %: 20.622  AVERAGE MISS PENALTY: 0

LLC6 TOTAL     ACCESS: 487570  HIT:  9620  MISS: 477950  HIT %: 1.97305  MISS %: 98.0269  AVERAGE MISS PENALTY: 545.273
LLC6 LOAD      ACCESS:  6065  HIT:     3  MISS:  6062  HIT %: 0.0494641  MISS %: 99.9505  AVERAGE MISS PENALTY: 454.887
LLC6 RFO       ACCESS: 12189  HIT:     0  MISS: 12189  HIT %:     0  MISS %:   100  AVERAGE MISS PENALTY: 495.183
LLC6 PREFETCH  ACCESS: 457140  HIT:     3  MISS: 457137  HIT %: 0.000656254  MISS %: 99.9993  AVERAGE MISS PENALTY: 550.863
LLC6 WRITEBACK ACCESS: 12176  HIT:  9614  MISS:  2562  HIT %: 78.9586  MISS %: 21.0414  AVERAGE MISS PENALTY: 0

LLC7 TOTAL     ACCESS: 487575  HIT:  9569  MISS: 478006  HIT %: 1.96257  MISS %: 98.0374  AVERAGE MISS PENALTY: 519.808
LLC7 LOAD      ACCESS:  6111  HIT:     4  MISS:  6107  HIT %: 0.0654557  MISS %: 99.9345  AVERAGE MISS PENALTY: 446.428
LLC7 RFO       ACCESS: 12189  HIT:     0  MISS: 12189  HIT %:     0  MISS %:   100  AVERAGE MISS PENALTY: 487.343
LLC7 PREFETCH  ACCESS: 457096  HIT:    10  MISS: 457086  HIT %: 0.00218772  MISS %: 99.9978  AVERAGE MISS PENALTY: 524.638
LLC7 WRITEBACK ACCESS: 12179  HIT:  9555  MISS:  2624  HIT %: 78.4547  MISS %: 21.5453  AVERAGE MISS PENALTY: 0

Total Rob stall cycles : 	170610280
Total Load Rob Stall cycles : 	89678524
Average Rob Stall cycles : 	 6
Average Load Rob Stall cycles : 	 21

CPU 1 cumulative IPC: 0.939217 instructions: 200475505 cycles: 213449714
ITLB TOTAL     ACCESS: 18001709  HIT: 18001709  MISS:     0  HIT %:   100  MISS %:     0  AVERAGE MISS PENALTY: 0
ITLB LOAD      ACCESS: 18001709  HIT: 18001709  MISS:     0  HIT %:   100  MISS %:     0  AVERAGE MISS PENALTY: 0
ITLB RFO       ACCESS:     0  HIT:     0  MISS:     0  HIT %:     0  MISS %:     0  AVERAGE MISS PENALTY: 0
ITLB PREFETCH  ACCESS:     0  HIT:     0  MISS:     0  HIT %:     0  MISS %:     0  AVERAGE MISS PENALTY: 0
ITLB WRITEBACK ACCESS:     0  HIT:     0  MISS:     0  HIT %:     0  MISS %:     0  AVERAGE MISS PENALTY: 0

DTLB TOTAL     ACCESS: 64803239  HIT: 64684619  MISS: 118620  HIT %: 99.817  MISS %: 0.183046  AVERAGE MISS PENALTY: 215.357
DTLB LOAD      ACCESS: 59808779  HIT: 59703828  MISS: 104951  HIT %: 99.8245  MISS %: 0.175478  AVERAGE MISS PENALTY: 240.78
DTLB RFO       ACCESS: 4994460  HIT: 4980791  MISS: 13669  HIT %: 99.7263  MISS %: 0.273683  AVERAGE MISS PENALTY: 20.1641
DTLB PREFETCH  ACCESS:     0  HIT:     0  MISS:     0  HIT %:     0  MISS %:     0  AVERAGE MISS PENALTY: 0
DTLB WRITEBACK ACCESS:     0  HIT:     0  MISS:     0  HIT %:     0  MISS %:     0  AVERAGE MISS PENALTY: 0

STLB TOTAL     ACCESS: 118620  HIT: 59099  MISS: 59521  HIT %: 49.8221  MISS %: 50.1779  AVERAGE MISS PENALTY: 100
STLB LOAD      ACCESS: 104951  HIT: 46956  MISS: 57995  HIT %: 44.7409  MISS %: 55.2591  AVERAGE MISS PENALTY: 100
STLB RFO       ACCESS: 13669  HIT: 12143  MISS:  1526  HIT %: 88.8361  MISS %: 11.1639  AVERAGE MISS PENALTY: 100
STLB PREFETCH  ACCESS:     0  HIT:     0  MISS:     0  HIT %:     0  MISS %:     0  AVERAGE MISS PENALTY: 0
STLB WRITEBACK ACCESS:     0  HIT:     0  MISS:     0  HIT %:     0  MISS %:     0  AVERAGE MISS PENALTY: 0

L1D TOTAL     ACCESS: 99097607  HIT: 95089656  MISS: 4007951  HIT %: 95.9556  MISS %: 4.04445  AVERAGE MISS PENALTY: 2.21199e+07
L1D LOAD      ACCESS: 59848983  HIT: 59230889  MISS: 618094  HIT %: 98.9672  MISS %: 1.03276  AVERAGE MISS PENALTY: 1.43432e+08
L1D RFO       ACCESS: 10927203  HIT: 10829523  MISS: 97680  HIT %: 99.1061  MISS %: 0.893916  AVERAGE MISS PENALTY: 575.166
L1D PREFETCH  ACCESS: 28321421  HIT: 25029244  MISS: 3292177  HIT %: 88.3757  MISS %: 11.6243  AVERAGE MISS PENALTY: 180.369
L1D WRITEBACK ACCESS:     0  HIT:     0  MISS:     0  HIT %:     0  MISS %:     0  AVERAGE MISS PENALTY: 0

L1I TOTAL     ACCESS: 30201620  HIT: 30201620  MISS:     0  HIT %:   100  MISS %:     0  AVERAGE MISS PENALTY: 0
L1I LOAD      ACCESS: 30201620  HIT: 30201620  MISS:     0  HIT %:   100  MISS %:     0  AVERAGE MISS PENALTY: 0
L1I RFO       ACCESS:     0  HIT:     0  MISS:     0  HIT %:     0  MISS %:     0  AVERAGE MISS PENALTY: 0
L1I PREFETCH  ACCESS:     0  HIT:     0  MISS:     0  HIT %:     0  MISS %:     0  AVERAGE MISS PENALTY: 0
L1I WRITEBACK ACCESS:     0  HIT:     0  MISS:     0  HIT %:     0  MISS %:     0  AVERAGE MISS PENALTY: 0

L2C TOTAL     ACCESS: 6999793  HIT: 3190220  MISS: 3809573  HIT %: 45.5759  MISS %: 54.4241  AVERAGE MISS PENALTY: 2.04285e+07
L2C LOAD      ACCESS: 597080  HIT: 126789  MISS: 470291  HIT %: 21.2348  MISS %: 78.7652  AVERAGE MISS PENALTY: 1.65476e+08
L2C RFO       ACCESS: 97680  HIT:     0  MISS: 97680  HIT %:     0  MISS %:   100  AVERAGE MISS PENALTY: 558.257
L2C PREFETCH  ACCESS: 6205872  HIT: 2964270  MISS: 3241602  HIT %: 47.7656  MISS %: 52.2344  AVERAGE MISS PENALTY: 500.553
L2C WRITEBACK ACCESS: 99161  HIT: 99161  MISS:     0  HIT %:   100  MISS %:     0  AVERAGE MISS PENALTY: 0


LLC0 TOTAL     ACCESS: 488384  HIT:  9625  MISS: 478759  HIT %: 1.97079  MISS %: 98.0292  AVERAGE MISS PENALTY: 445.25
LLC0 LOAD      ACCESS: 63846  HIT:     0  MISS: 63846  HIT %:     0  MISS %:   100  AVERAGE MISS PENALTY: 544.518
LLC0 RFO       ACCESS: 12210  HIT:     0  MISS: 12210  HIT %:     0  MISS %:   100  AVERAGE MISS PENALTY: 458.094
LLC0 PREFETCH  ACCESS: 400134  HIT:     6  MISS: 400128  HIT %: 0.0014995  MISS %: 99.9985  AVERAGE MISS PENALTY: 431.883
LLC0 WRITEBACK ACCESS: 12194  HIT:  9619  MISS:  2575  HIT %: 78.8831  MISS %: 21.1169  AVERAGE MISS PENALTY: 0

LLC1 TOTAL     ACCESS: 488380  HIT:  9602  MISS: 478778  HIT %: 1.96609  MISS %: 98.0339  AVERAGE MISS PENALTY: 443.602
LLC1 LOAD      ACCESS: 20007  HIT:     0  MISS: 20007  HIT %:     0  MISS %:   100  AVERAGE MISS PENALTY: 551.377
LLC1 RFO       ACCESS: 12210  HIT:     0  MISS: 12210  HIT %:     0  MISS %:   100  AVERAGE MISS PENALTY: 467.129
LLC1 PREFETCH  ACCESS: 443969  HIT:     1  MISS: 443968  HIT %: 0.000225241  MISS %: 99.9998  AVERAGE MISS PENALTY: 440.689
LLC1 WRITEBACK ACCESS: 12194  HIT:  9601  MISS:  2593  HIT %: 78.7354  MISS %: 21.2646  AVERAGE MISS PENALTY: 0

LLC2 TOTAL     ACCESS: 488384  HIT:  9678  MISS: 478706  HIT %: 1.98164  MISS %: 98.0184  AVERAGE MISS PENALTY: 535.958
LLC2 LOAD      ACCESS:  5953  HIT:     0  MISS:  5953  HIT %:     0  MISS %:   100  AVERAGE MISS PENALTY: 457.141
LLC2 RFO       ACCESS: 12210  HIT:     0  MISS: 12210  HIT %:     0  MISS %:   100  AVERAGE MISS PENALTY: 471.389
LLC2 PREFETCH  ACCESS: 458027  HIT:     2  MISS: 458025  HIT %: 0.000436655  MISS %: 99.9996  AVERAGE MISS PENALTY: 541.65
LLC2 WRITEBACK ACCESS: 12194  HIT:  9676  MISS:  2518  HIT %: 79.3505  MISS %: 20.6495  AVERAGE MISS PENALTY: 0

LLC3 TOTAL     ACCESS: 488396  HIT:  9650  MISS: 478746  HIT %: 1.97586  MISS %: 98.0241  AVERAGE MISS PENALTY: 523.223
LLC3 LOAD      ACCESS:  6527  HIT:     0  MISS:  6527  HIT %:     0  MISS %:   100  AVERAGE MISS PENALTY: 437.98
LLC3 RFO       ACCESS: 12210  HIT:     0  MISS: 12210  HIT %:     0  MISS %:   100  AVERAGE MISS PENALTY: 475.002
LLC3 PREFETCH  ACCESS: 457465  HIT:     1  MISS: 457464  HIT %: 0.000218596  MISS %: 99.9998  AVERAGE MISS PENALTY: 528.637
LLC3 WRITEBACK ACCESS: 12194  HIT:  9649  MISS:  2545  HIT %: 79.1291  MISS %: 20.8709  AVERAGE MISS PENALTY: 0

[...]
LLC1 PREFETCH  REQUESTED:     0  ISSUED:     0  USEFUL:     0  USELESS: 3551084
 USEFUL LOAD PREFETCHES:          0 PREFETCH ISSUED TO LOWER LEVEL:    9597758  ACCURACY: 0
 TIMELY PREFETCHES:          0 LATE PREFETCHES: 0 DROPPED PREFETCHES: 0
LLC1 AVERAGE MISS LATENCY: 441.666 cycles
LLC2 TOTAL     ACCESS: 487241  HIT:  9593  MISS: 477648  HIT %: 1.96884  MISS %: 98.0312  AVERAGE MISS PENALTY: 534.847
LLC2 LOAD      ACCESS:  6083  HIT:     0  MISS:  6083  HIT %:     0  MISS %:   100  AVERAGE MISS PENALTY: 448.232
LLC2 RFO       ACCESS: 12181  HIT:     0  MISS: 12181  HIT %:     0  MISS %:   100  AVERAGE MISS PENALTY: 474.836
LLC2 PREFETCH  ACCESS: 456807  HIT:     4  MISS: 456803  HIT %: 0.000875643  MISS %: 99.9991  AVERAGE MISS PENALTY: 540.623
LLC2 WRITEBACK ACCESS: 12170  HIT:  9589  MISS:  2581  HIT %: 78.7921  MISS %: 21.2079  AVERAGE MISS PENALTY: 0
LLC2 PREFETCH  REQUESTED:     0  ISSUED:     0  USEFUL:     0  USELESS: 3662183
 USEFUL LOAD PREFETCHES:          0 PREFETCH ISSUED TO LOWER LEVEL:   15095839  ACCURACY: 0
 TIMELY PREFETCHES:          0 LATE PREFETCHES: 0 DROPPED PREFETCHES: 0
LLC2 AVERAGE MISS LATENCY: 534.847 cycles
LLC3 TOTAL     ACCESS: 487247  HIT:  9596  MISS: 477651  HIT %: 1.96943  MISS %: 98.0306  AVERAGE MISS PENALTY: 521.495
LLC3 LOAD      ACCESS:  6601  HIT:     0  MISS:  6601  HIT %:     0  MISS %:   100  AVERAGE MISS PENALTY: 436.54
LLC3 RFO       ACCESS: 12181  HIT:     0  MISS: 12181  HIT %:     0  MISS %:   100  AVERAGE MISS PENALTY: 468.301
LLC3 PREFETCH  ACCESS: 456295  HIT:     8  MISS: 456287  HIT %: 0.00175325  MISS %: 99.9982  AVERAGE MISS PENALTY: 527.095
LLC3 WRITEBACK ACCESS: 12170  HIT:  9588  MISS:  2582  HIT %: 78.7839  MISS %: 21.2161  AVERAGE MISS PENALTY: 0
LLC3 PREFETCH  REQUESTED:     0  ISSUED:     0  USEFUL:     0  USELESS: 3657651
 USEFUL LOAD PREFETCHES:          0 PREFETCH ISSUED TO LOWER LEVEL:   11974501  ACCURACY: 0
 TIMELY PREFETCHES:          0 LATE PREFETCHES: 0 DROPPED PREFETCHES: 0
LLC3 AVERAGE MISS LATENCY: 521.495 cycles
LLC4 TOTAL     ACCESS: 487257  HIT:  9629  MISS: 477628  HIT %: 1.97616  MISS %: 98.0238  AVERAGE MISS PENALTY: 449.798
LLC4 LOAD      ACCESS:  6541  HIT:     0  MISS:  6541  HIT %:     0  MISS %:   100  AVERAGE MISS PENALTY: 585.807
LLC4 RFO       ACCESS: 12181  HIT:     0  MISS: 12181  HIT %:     0  MISS %:   100  AVERAGE MISS PENALTY: 515.578
LLC4 PREFETCH  ACCESS: 456354  HIT:     5  MISS: 456349  HIT %: 0.00109564  MISS %: 99.9989  AVERAGE MISS PENALTY: 448.613
LLC4 WRITEBACK ACCESS: 12181  HIT:  9624  MISS:  2557  HIT %: 79.0083  MISS %: 20.9917  AVERAGE MISS PENALTY: 0
LLC4 PREFETCH  REQUESTED:     0  ISSUED:     0  USEFUL:     0  USELESS: 3658025
 USEFUL LOAD PREFETCHES:          0 PREFETCH ISSUED TO LOWER LEVEL:   18127275  ACCURACY: 0
 TIMELY PREFETCHES:          0 LATE PREFETCHES: 0 DROPPED PREFETCHES: 0
LLC4 AVERAGE MISS LATENCY: 449.798 cycles
LLC5 TOTAL     ACCESS: 487256  HIT:  9585  MISS: 477671  HIT %: 1.96714  MISS %: 98.0329  AVERAGE MISS PENALTY: 448.816
LLC5 LOAD      ACCESS:  6077  HIT:     0  MISS:  6077  HIT %:     0  MISS %:   100  AVERAGE MISS PENALTY: 574.605
LLC5 RFO       ACCESS: 12181  HIT:     0  MISS: 12181  HIT %:     0  MISS %:   100  AVERAGE MISS PENALTY: 759.432
LLC5 PREFETCH  ACCESS: 456818  HIT:     5  MISS: 456813  HIT %: 0.00109453  MISS %: 99.9989  AVERAGE MISS PENALTY: 441.414
LLC5 WRITEBACK ACCESS: 12180  HIT:  9580  MISS:  2600  HIT %: 78.6535  MISS %: 21.3465  AVERAGE MISS PENALTY: 0
LLC5 PREFETCH  REQUESTED:     0  ISSUED:     0  USEFUL:     0  USELESS: 3662410
 USEFUL LOAD PREFETCHES:          0 PREFETCH ISSUED TO LOWER LEVEL:   13433428  ACCURACY: 0
 TIMELY PREFETCHES:          0 LATE PREFETCHES: 0 DROPPED PREFETCHES: 0
LLC5 AVERAGE MISS LATENCY: 448.816 cycles
LLC6 TOTAL     ACCESS: 487243  HIT:  9654  MISS: 477589  HIT %: 1.98135  MISS %: 98.0186  AVERAGE MISS PENALTY: 541.623
LLC6 LOAD      ACCESS:  6053  HIT:     0  MISS:  6053  HIT %:     0  MISS %:   100  AVERAGE MISS PENALTY: 449.786
LLC6 RFO       ACCESS: 12181  HIT:     0  MISS: 12181  HIT %:     0  MISS %:   100  AVERAGE MISS PENALTY: 509.342
LLC6 PREFETCH  ACCESS: 456840  HIT:    11  MISS: 456829  HIT %: 0.00240785  MISS %: 99.9976  AVERAGE MISS PENALTY: 546.695
LLC6 WRITEBACK ACCESS: 12169  HIT:  9643  MISS:  2526  HIT %: 79.2423  MISS %: 20.7577  AVERAGE MISS PENALTY: 0
LLC6 PREFETCH  REQUESTED:     0  ISSUED:     0  USEFUL:     0  USELESS: 3661410
 USEFUL LOAD PREFETCHES:          0 PREFETCH ISSUED TO LOWER LEVEL:   20912580  ACCURACY: 0
 TIMELY PREFETCHES:          0 LATE PREFETCHES: 0 DROPPED PREFETCHES: 0
LLC6 AVERAGE MISS LATENCY: 541.623 cycles
LLC7 TOTAL     ACCESS: 487251  HIT:  9600  MISS: 477651  HIT %: 1.97024  MISS %: 98.0298  AVERAGE MISS PENALTY: 516.97
LLC7 LOAD      ACCESS:  5928  HIT:     0  MISS:  5928  HIT %:     0  MISS %:   100  AVERAGE MISS PENALTY: 446.917
LLC7 RFO       ACCESS: 12181  HIT:     0  MISS: 12181  HIT %:     0  MISS %:   100  AVERAGE MISS PENALTY: 490.529
LLC7 PREFETCH  ACCESS: 456972  HIT:    14  MISS: 456958  HIT %: 0.00306365  MISS %: 99.9969  AVERAGE MISS PENALTY: 521.507
LLC7 WRITEBACK ACCESS: 12170  HIT:  9586  MISS:  2584  HIT %: 78.7675  MISS %: 21.2325  AVERAGE MISS PENALTY: 0
LLC7 PREFETCH  REQUESTED:     0  ISSUED:     0  USEFUL:     0  USELESS: 3662488
 USEFUL LOAD PREFETCHES:          0 PREFETCH ISSUED TO LOWER LEVEL:   16064802  ACCURACY: 0
 TIMELY PREFETCHES:          0 LATE PREFETCHES: 0 DROPPED PREFETCHES: 0
LLC7 AVERAGE MISS LATENCY: 516.97 cycles
ROI Average ROB Stall Cycles:	5.99419
ROI Total ROB Stalls Cycles:	169899517
ROI TOTAL ROB counter      :	28344050
ROI Average Load ROB Stall Cycles:	21.4351
ROI Total Load ROB Stalls Cycle  :	88982211
ROI Total Load ROB stalls Counter:	4151238
Major fault: 0 Minor fault: 113153

CPU 7 cumulative IPC: 0.938882 instructions: 200000002 cycles: 213019356
ITLB TOTAL     ACCESS: 17959334  HIT: 17959334  MISS:     0  HIT %:   100  MISS %:     0  AVERAGE MISS PENALTY: 0
ITLB LOAD      ACCESS: 17959334  HIT: 17959334  MISS:     0  HIT %:   100  MISS %:     0  AVERAGE MISS PENALTY: 0
ITLB RFO       ACCESS:     0  HIT:     0  MISS:     0  HIT %:     0  MISS %:     0  AVERAGE MISS PENALTY: 0
ITLB PREFETCH  ACCESS:     0  HIT:     0  MISS:     0  HIT %:     0  MISS %:     0  AVERAGE MISS PENALTY: 0
ITLB WRITEBACK ACCESS:     0  HIT:     0  MISS:     0  HIT %:     0  MISS %:     0  AVERAGE MISS PENALTY: 0
ITLB PREFETCH  REQUESTED:     0  ISSUED:     0  USEFUL:     0  USELESS:     0
 USEFUL LOAD PREFETCHES:          0 PREFETCH ISSUED TO LOWER LEVEL:          0  ACCURACY: -nan
 TIMELY PREFETCHES:          0 LATE PREFETCHES: 0 DROPPED PREFETCHES: 0
ITLB AVERAGE MISS LATENCY: -nan cycles
DTLB TOTAL     ACCESS: 64648695  HIT: 64530203  MISS: 118492  HIT %: 99.8167  MISS %: 0.183286  AVERAGE MISS PENALTY: 215.166
DTLB LOAD      ACCESS: 59665952  HIT: 59561143  MISS: 104809  HIT %: 99.8243  MISS %: 0.17566  AVERAGE MISS PENALTY: 240.624
DTLB RFO       ACCESS: 4982743  HIT: 4969060  MISS: 13683  HIT %: 99.7254  MISS %: 0.274608  AVERAGE MISS PENALTY: 20.1597
DTLB PREFETCH  ACCESS:     0  HIT:     0  MISS:     0  HIT %:     0  MISS %:     0  AVERAGE MISS PENALTY: 0
DTLB WRITEBACK ACCESS:     0  HIT:     0  MISS:     0  HIT %:     0  MISS %:     0  AVERAGE MISS PENALTY: 0
DTLB PREFETCH  REQUESTED:     0  ISSUED:     0  USEFUL:     0  USELESS:     0
 USEFUL LOAD PREFETCHES:          0 PREFETCH ISSUED TO LOWER LEVEL:          0  ACCURACY: -nan
 TIMELY PREFETCHES:          0 LATE PREFETCHES: 0 DROPPED PREFETCHES: 0
DTLB AVERAGE MISS LATENCY: 215.166 cycles
STLB TOTAL     ACCESS: 118492  HIT: 59110  MISS: 59382  HIT %: 49.8852  MISS %: 50.1148  AVERAGE MISS PENALTY: 100
STLB LOAD      ACCESS: 104809  HIT: 46950  MISS: 57859  HIT %: 44.7958  MISS %: 55.2042  AVERAGE MISS PENALTY: 100
STLB RFO       ACCESS: 13683  HIT: 12160  MISS:  1523  HIT %: 88.8694  MISS %: 11.1306  AVERAGE MISS PENALTY: 100
STLB PREFETCH  ACCESS:     0  HIT:     0  MISS:     0  HIT %:     0  MISS %:     0  AVERAGE MISS PENALTY: 0
STLB WRITEBACK ACCESS:     0  HIT:     0  MISS:     0  HIT %:     0  MISS %:     0  AVERAGE MISS PENALTY: 0
STLB PREFETCH  REQUESTED:     0  ISSUED:     0  USEFUL:     0  USELESS:     0
 USEFUL LOAD PREFETCHES:          0 PREFETCH ISSUED TO LOWER LEVEL:          0  ACCURACY: -nan
 TIMELY PREFETCHES:          0 LATE PREFETCHES: 0 DROPPED PREFETCHES: 0
STLB AVERAGE MISS LATENCY: 100 cycles
L1D TOTAL     ACCESS: 98866779  HIT: 94868323  MISS: 3998456  HIT %: 95.9557  MISS %: 4.04429  AVERAGE MISS PENALTY: 2.2049e+07
L1D LOAD      ACCESS: 59705539  HIT: 59089092  MISS: 616447  HIT %: 98.9675  MISS %: 1.03248  AVERAGE MISS PENALTY: 1.43015e+08
L1D RFO       ACCESS: 10905623  HIT: 10808174  MISS: 97449  HIT %: 99.1064  MISS %: 0.893567  AVERAGE MISS PENALTY: 569.041
L1D PREFETCH  ACCESS: 28255617  HIT: 24971057  MISS: 3284560  HIT %: 88.3756  MISS %: 11.6244  AVERAGE MISS PENALTY: 179.75
L1D WRITEBACK ACCESS:     0  HIT:     0  MISS:     0  HIT %:     0  MISS %:     0  AVERAGE MISS PENALTY: 0
L1D PREFETCH  REQUESTED: 44724789  ISSUED: 30918377  USEFUL: 3284480  USELESS:    86
 USEFUL LOAD PREFETCHES:    3284480 PREFETCH ISSUED TO LOWER LEVEL:   14475076  ACCURACY: 22.6906
 TIMELY PREFETCHES:    3284480 LATE PREFETCHES: 500792 DROPPED PREFETCHES: 13806412
L1D AVERAGE MISS LATENCY: 211.975 cycles
L1I TOTAL     ACCESS: 30130365  HIT: 30130365  MISS:     0  HIT %:   100  MISS %:     0  AVERAGE MISS PENALTY: 0
L1I LOAD      ACCESS: 30130365  HIT: 30130365  MISS:     0  HIT %:   100  MISS %:     0  AVERAGE MISS PENALTY: 0
L1I RFO       ACCESS:     0  HIT:     0  MISS:     0  HIT %:     0  MISS %:     0  AVERAGE MISS PENALTY: 0
L1I PREFETCH  ACCESS:     0  HIT:     0  MISS:     0  HIT %:     0  MISS %:     0  AVERAGE MISS PENALTY: 0
L1I WRITEBACK ACCESS:     0  HIT:     0  MISS:     0  HIT %:     0  MISS %:     0  AVERAGE MISS PENALTY: 0
L1I PREFETCH  REQUESTED:     0  ISSUED:     0  USEFUL:     0  USELESS:     0
 USEFUL LOAD PREFETCHES:          0 PREFETCH ISSUED TO LOWER LEVEL:          0  ACCURACY: -nan
 TIMELY PREFETCHES:          0 LATE PREFETCHES: 0 DROPPED PREFETCHES: 0
L1I AVERAGE MISS LATENCY: -nan cycles
L2C TOTAL     ACCESS: 6988151  HIT: 3187582  MISS: 3800569  HIT %: 45.6141  MISS %: 54.3859  AVERAGE MISS PENALTY: 2.03649e+07
L2C LOAD      ACCESS: 595715  HIT: 126702  MISS: 469013  HIT %: 21.2689  MISS %: 78.7311  AVERAGE MISS PENALTY: 1.6502e+08
L2C RFO       ACCESS: 97449  HIT:     0  MISS: 97449  HIT %:     0  MISS %:   100  AVERAGE MISS PENALTY: 552.205
L2C PREFETCH  ACCESS: 6196060  HIT: 2961953  MISS: 3234107  HIT %: 47.8038  MISS %: 52.1962  AVERAGE MISS PENALTY: 499.744
L2C WRITEBACK ACCESS: 98927  HIT: 98927  MISS:     0  HIT %:   100  MISS %:     0  AVERAGE MISS PENALTY: 0
L2C PREFETCH  REQUESTED: 6019117  ISSUED: 5993561  USEFUL: 120768  USELESS: 3114175
 USEFUL LOAD PREFETCHES:     120768 PREFETCH ISSUED TO LOWER LEVEL:    5315294  ACCURACY: 2.27209
 TIMELY PREFETCHES:     120768 LATE PREFETCHES: 377690 DROPPED PREFETCHES: 25556
L2C AVERAGE MISS LATENCY: 489.877 cycles
LLC0 TOTAL     ACCESS: 487244  HIT:  9580  MISS: 477664  HIT %: 1.96616  MISS %: 98.0338  AVERAGE MISS PENALTY: 445.962
LLC0 LOAD      ACCESS: 63646  HIT:     0  MISS: 63646  HIT %:     0  MISS %:   100  AVERAGE MISS PENALTY: 546.397
LLC0 RFO       ACCESS: 12182  HIT:     0  MISS: 12182  HIT %:     0  MISS %:   100  AVERAGE MISS PENALTY: 457.292
LLC0 PREFETCH  ACCESS: 399238  HIT:     6  MISS: 399232  HIT %: 0.00150286  MISS %: 99.9985  AVERAGE MISS PENALTY: 432.514
LLC0 WRITEBACK ACCESS: 12178  HIT:  9574  MISS:  2604  HIT %: 78.6172  MISS %: 21.3828  AVERAGE MISS PENALTY: 0
LLC0 PREFETCH  REQUESTED:     0  ISSUED:     0  USEFUL:     0  USELESS: 3200614
 USEFUL LOAD PREFETCHES:          0 PREFETCH ISSUED TO LOWER LEVEL:   10825394  ACCURACY: 0
 TIMELY PREFETCHES:          0 LATE PREFETCHES: 0 DROPPED PREFETCHES: 0
LLC0 AVERAGE MISS LATENCY: 445.962 cycles
Deadblocks : 509789 Deadblock percentage : 800.976

LLC1 TOTAL     ACCESS: 487240  HIT:  9577  MISS: 477663  HIT %: 1.96556  MISS %: 98.0344  AVERAGE MISS PENALTY: 442.685
LLC1 LOAD      ACCESS: 19940  HIT:     0  MISS: 19940  HIT %:     0  MISS %:   100  AVERAGE MISS PENALTY: 556.436
LLC1 RFO       ACCESS: 12181  HIT:     0  MISS: 12181  HIT %:     0  MISS %:   100  AVERAGE MISS PENALTY: 457.833
LLC1 PREFETCH  ACCESS: 442941  HIT:     3  MISS: 442938  HIT %: 0.000677291  MISS %: 99.9993  AVERAGE MISS PENALTY: 439.75
LLC1 WRITEBACK ACCESS: 12178  HIT:  9574  MISS:  2604  HIT %: 78.6172  MISS %: 21.3828  AVERAGE MISS PENALTY: 0
LLC1 PREFETCH  REQUESTED:     0  ISSUED:     0  USEFUL:     0  USELESS: 3551084
 USEFUL LOAD PREFETCHES:          0 PREFETCH ISSUED TO LOWER LEVEL:    9597758  ACCURACY: 0
 TIMELY PREFETCHES:          0 LATE PREFETCHES: 0 DROPPED PREFETCHES: 0
LLC1 AVERAGE MISS LATENCY: 442.685 cycles
LLC2 TOTAL     ACCESS: 487241  HIT:  9581  MISS: 477660  HIT %: 1.96638  MISS %: 98.0336  AVERAGE MISS PENALTY: 536.033
LLC2 LOAD      ACCESS:  6085  HIT:     0  MISS:  6085  HIT %:     0  MISS %:   100  AVERAGE MISS PENALTY: 454.073
LLC2 RFO       ACCESS: 12181  HIT:     0  MISS: 12181  HIT %:     0  MISS %:   100  AVERAGE MISS PENALTY: 473.679
LLC2 PREFETCH  ACCESS: 456797  HIT:     5  MISS: 456792  HIT %: 0.00109458  MISS %: 99.9989  AVERAGE MISS PENALTY: 541.841
LLC2 WRITEBACK ACCESS: 12178  HIT:  9576  MISS:  2602  HIT %: 78.6336  MISS %: 21.3664  AVERAGE MISS PENALTY: 0
LLC2 PREFETCH  REQUESTED:     0  ISSUED:     0  USEFUL:     0  USELESS: 3662183
 USEFUL LOAD PREFETCHES:          0 PREFETCH ISSUED TO LOWER LEVEL:   15095839  ACCURACY: 0
 TIMELY PREFETCHES:          0 LATE PREFETCHES: 0 DROPPED PREFETCHES: 0
LLC2 AVERAGE MISS LATENCY: 536.033 cycles
LLC3 TOTAL     ACCESS: 487255  HIT:  9562  MISS: 477693  HIT %: 1.96242  MISS %: 98.0376  AVERAGE MISS PENALTY: 520.99
LLC3 LOAD      ACCESS:  6511  HIT:     0  MISS:  6511  HIT %:     0  MISS %:   100  AVERAGE MISS PENALTY: 425.07
LLC3 RFO       ACCESS: 12181  HIT:     0  MISS: 12181  HIT %:     0  MISS %:   100  AVERAGE MISS PENALTY: 459.813
LLC3 PREFETCH  ACCESS: 456385  HIT:     5  MISS: 456380  HIT %: 0.00109557  MISS %: 99.9989  AVERAGE MISS PENALTY: 526.984
LLC3 WRITEBACK ACCESS: 12178  HIT:  9557  MISS:  2621  HIT %: 78.4776  MISS %: 21.5224  AVERAGE MISS PENALTY: 0
LLC3 PREFETCH  REQUESTED:     0  ISSUED:     0  USEFUL:     0  USELESS: 3657651
 USEFUL LOAD PREFETCHES:          0 PREFETCH ISSUED TO LOWER LEVEL:   11974501  ACCURACY: 0
 TIMELY PREFETCHES:          0 LATE PREFETCHES: 0 DROPPED PREFETCHES: 0
LLC3 AVERAGE MISS LATENCY: 520.99 cycles
LLC4 TOTAL     ACCESS: 487263  HIT:  9634  MISS: 477629  HIT %: 1.97717  MISS %: 98.0228  AVERAGE MISS PENALTY: 452.206
LLC4 LOAD      ACCESS:  6396  HIT:     0  MISS:  6396  HIT %:     0  MISS %:   100  AVERAGE MISS PENALTY: 576.267
LLC4 RFO       ACCESS: 12181  HIT:     0  MISS: 12181  HIT %:     0  MISS %:   100  AVERAGE MISS PENALTY: 510.247
LLC4 PREFETCH  ACCESS: 456497  HIT:     4  MISS: 456493  HIT %: 0.000876238  MISS %: 99.9991  AVERAGE MISS PENALTY: 451.454
LLC4 WRITEBACK ACCESS: 12189  HIT:  9630  MISS:  2559  HIT %: 79.0057  MISS %: 20.9943  AVERAGE MISS PENALTY: 0
LLC4 PREFETCH  REQUESTED:     0  ISSUED:     0  USEFUL:     0  USELESS: 3658025
 USEFUL LOAD PREFETCHES:          0 PREFETCH ISSUED TO LOWER LEVEL:   18127275  ACCURACY: 0
 TIMELY PREFETCHES:          0 LATE PREFETCHES: 0 DROPPED PREFETCHES: 0
LLC4 AVERAGE MISS LATENCY: 452.206 cycles
LLC5 TOTAL     ACCESS: 487267  HIT:  9591  MISS: 477676  HIT %: 1.96833  MISS %: 98.0317  AVERAGE MISS PENALTY: 450.475
LLC5 LOAD      ACCESS:  5946  HIT:     0  MISS:  5946  HIT %:     0  MISS %:   100  AVERAGE MISS PENALTY: 585.858
LLC5 RFO       ACCESS: 12181  HIT:     0  MISS: 12181  HIT %:     0  MISS %:   100  AVERAGE MISS PENALTY: 752.173
LLC5 PREFETCH  ACCESS: 456950  HIT:     4  MISS: 456946  HIT %: 0.000875369  MISS %: 99.9991  AVERAGE MISS PENALTY: 443.236
LLC5 WRITEBACK ACCESS: 12190  HIT:  9587  MISS:  2603  HIT %: 78.6464  MISS %: 21.3536  AVERAGE MISS PENALTY: 0
LLC5 PREFETCH  REQUESTED:     0  ISSUED:     0  USEFUL:     0  USELESS: 3662410
 USEFUL LOAD PREFETCHES:          0 PREFETCH ISSUED TO LOWER LEVEL:   13433428  ACCURACY: 0
 TIMELY PREFETCHES:          0 LATE PREFETCHES: 0 DROPPED PREFETCHES: 0
LLC5 AVERAGE MISS LATENCY: 450.475 cycles
LLC6 TOTAL     ACCESS: 487256  HIT:  9535  MISS: 477721  HIT %: 1.95688  MISS %: 98.0431  AVERAGE MISS PENALTY: 543.889
LLC6 LOAD      ACCESS:  6162  HIT:     1  MISS:  6161  HIT %: 0.0162285  MISS %: 99.9838  AVERAGE MISS PENALTY: 452.893
LLC6 RFO       ACCESS: 12181  HIT:     0  MISS: 12181  HIT %:     0  MISS %:   100  AVERAGE MISS PENALTY: 499.936
LLC6 PREFETCH  ACCESS: 456733  HIT:     7  MISS: 456726  HIT %: 0.00153262  MISS %: 99.9985  AVERAGE MISS PENALTY: 549.448
LLC6 WRITEBACK ACCESS: 12180  HIT:  9527  MISS:  2653  HIT %: 78.2184  MISS %: 21.7816  AVERAGE MISS PENALTY: 0
LLC6 PREFETCH  REQUESTED:     0  ISSUED:     0  USEFUL:     0  USELESS: 3661410
 USEFUL LOAD PREFETCHES:          0 PREFETCH ISSUED TO LOWER LEVEL:   20912580  ACCURACY: 0
 TIMELY PREFETCHES:          0 LATE PREFETCHES: 0 DROPPED PREFETCHES: 0
LLC6 AVERAGE MISS LATENCY: 543.889 cycles
LLC7 TOTAL     ACCESS: 487253  HIT:  9646  MISS: 477607  HIT %: 1.97967  MISS %: 98.0203  AVERAGE MISS PENALTY: 519.885
LLC7 LOAD      ACCESS:  6008  HIT:     0  MISS:  6008  HIT %:     0  MISS %:   100  AVERAGE MISS PENALTY: 459.001
LLC7 RFO       ACCESS: 12181  HIT:     0  MISS: 12181  HIT %:     0  MISS %:   100  AVERAGE MISS PENALTY: 486.627
LLC7 PREFETCH  ACCESS: 456885  HIT:     9  MISS: 456876  HIT %: 0.00196986  MISS %: 99.998  AVERAGE MISS PENALTY: 524.465
LLC7 WRITEBACK ACCESS: 12179  HIT:  9637  MISS:  2542  HIT %: 79.128  MISS %: 20.872  AVERAGE MISS PENALTY: 0
LLC7 PREFETCH  REQUESTED:     0  ISSUED:     0  USEFUL:     0  USELESS: 3662488
 USEFUL LOAD PREFETCHES:          0 PREFETCH ISSUED TO LOWER LEVEL:   16064802  ACCURACY: 0
 TIMELY PREFETCHES:          0 LATE PREFETCHES: 0 DROPPED PREFETCHES: 0
LLC7 AVERAGE MISS LATENCY: 519.885 cycles
ROI Average ROB Stall Cycles:	6.00519
ROI Total ROB Stalls Cycles:	170200408
ROI TOTAL ROB counter      :	28342197
ROI Average Load ROB Stall Cycles:	21.5166
ROI Total Load ROB Stalls Cycle  :	89307586
ROI Total Load ROB stalls Counter:	4150639
Major fault: 0 Minor fault: 113079








Interconnect Stats 
LINK 0 BW : 0LINK 1 BW : 0LINK 2 BW : 0LINK 3 BW : 0LINK 4 BW : 0LINK 5 BW : 0LINK 6 BW : 0LINK 7 BW : 0
DRAM Statistics
 CHANNEL 0
 RQ ROW_BUFFER_HIT: 12554672  ROW_BUFFER_MISS: 2675946
 DBUS_CONGESTED: 8171142
 WQ ROW_BUFFER_HIT: 17203  ROW_BUFFER_MISS: 373059  FULL:     0

 CHANNEL 1
 RQ ROW_BUFFER_HIT: 12541532  ROW_BUFFER_MISS: 2689158
 DBUS_CONGESTED: 8171142
 WQ ROW_BUFFER_HIT: 17295  ROW_BUFFER_MISS: 372949  FULL:     0

 AVG_CONGESTED_CYCLE: 5
DRAM PAGES: 2097152
Allocated PAGES: 904551
L2C destructor called
L1D destructor called
L1I destructor called
STLB destructor called
DTLB destructor called
ITLB destructor called
L2C destructor called
L1D destructor called
L1I destructor called
STLB destructor called
DTLB destructor called
ITLB destructor called
L2C destructor called
L1D destructor called
L1I destructor called
STLB destructor called
DTLB destructor called
ITLB destructor called
L2C destructor called
L1D destructor called
L1I destructor called
STLB destructor called
DTLB destructor called
ITLB destructor called
L2C destructor called
L1D destructor called
L1I destructor called
STLB destructor called
DTLB destructor called
ITLB destructor called
L2C destructor called
L1D destructor called
L1I destructor called
STLB destructor called
DTLB destructor called
ITLB destructor called
L2C destructor called
L1D destructor called
L1I destructor called
STLB destructor called
DTLB destructor called
ITLB destructor called
L2C destructor called
L1D destructor called
L1I destructor called
STLB destructor called
DTLB destructor called
ITLB destructor called
