
*** ChampSim Multicore Out-of-Order Simulator ***

Warmup Instructions: 200000000
Simulation Instructions: 200000000
Number of CPUs: 8
threads:1

L1I Configuration:
L1I_SET:64
L1I_WAY:8
L1I_RQ_SIZE:64
L1I_WQ_SIZE:64
L1I_PQ_SIZE:8
L1I_MSHR_SIZE:8

L1D Configuration:
L1D_SET:64
L1D_WAY:12
L1D_RQ_SIZE:64
L1D_WQ_SIZE:64
L1D_PQ_SIZE:8
L1D_MSHR_SIZE:16

L2C Configuration:
L2C_SET:1024
L2C_WAY:8
L2C_RQ_SIZE:32
L2C_WQ_SIZE:32
L2C_PQ_SIZE:16
L2C_MSHR_SIZE:32

LLC Configuration:
LLC_SET:2048
LLC_WAY:16
LLC SLICES:8
LLC_RQ_SIZE:64
LLC_WQ_SIZE:64
LLC_PQ_SIZE:32
LLC_MSHR_SIZE:64

Interconnect OFF
Attacker deprioritize is: OFF
Off-chip DRAM Size: 8192 MB Channels: 2 Width: 64-bit Data Rate: 3200 MT/s
PAGE SIZE in KB: 4.000000 
PAGE SIZE in MB: 0.003906 
PAGE offset in bits: 12 
CEASER-S_LLC:0
MIRAGE : 1
CEASER_LATENCY:3
REMAP : OFF
Partitions : 1
Multi-Step : OFF
BFS : OFF

CPU 0 runs /home/anubhav/spec_2017/603.bwaves_s-2931B.champsimtrace.xz
CPU 1 runs /home/anubhav/spec_2017/603.bwaves_s-2931B.champsimtrace.xz
CPU 2 runs /home/anubhav/spec_2017/603.bwaves_s-2931B.champsimtrace.xz
CPU 3 runs /home/anubhav/spec_2017/603.bwaves_s-2931B.champsimtrace.xz
CPU 4 runs /home/anubhav/spec_2017/603.bwaves_s-2931B.champsimtrace.xz
CPU 5 runs /home/anubhav/spec_2017/603.bwaves_s-2931B.champsimtrace.xz
CPU 6 runs /home/anubhav/spec_2017/603.bwaves_s-2931B.champsimtrace.xz
CPU 7 runs /home/anubhav/spec_2017/603.bwaves_s-2931B.champsimtrace.xz
CPU 0 Bimodal branch predictor
Initialize Hawkeye state
Initialize Hawkeye state
Initialize Hawkeye state
Initialize Hawkeye state
Initialize Hawkeye state
Initialize Hawkeye state
Initialize Hawkeye state
Initialize Hawkeye state
CPU 1 Bimodal branch predictor
Initialize Hawkeye state
Initialize Hawkeye state
Initialize Hawkeye state
Initialize Hawkeye state
Initialize Hawkeye state
Initialize Hawkeye state
Initialize Hawkeye state
Initialize Hawkeye state
CPU 2 Bimodal branch predictor
Initialize Hawkeye state
Initialize Hawkeye state
Initialize Hawkeye state
Initialize Hawkeye state
Initialize Hawkeye state
Initialize Hawkeye state
Initialize Hawkeye state
Initialize Hawkeye state
CPU 3 Bimodal branch predictor
Initialize Hawkeye state
Initialize Hawkeye state
Initialize Hawkeye state
Initialize Hawkeye state
Initialize Hawkeye state
Initialize Hawkeye state
Initialize Hawkeye state
Initialize Hawkeye state
CPU 4 Bimodal branch predictor
Initialize Hawkeye state
Initialize Hawkeye state
Initialize Hawkeye state
Initialize Hawkeye state
Initialize Hawkeye state
Initialize Hawkeye state
Initialize Hawkeye state
Initialize Hawkeye state
CPU 5 Bimodal branch predictor
Initialize Hawkeye state
Initialize Hawkeye state
Initialize Hawkeye state
Initialize Hawkeye state
Initialize Hawkeye state
Initialize Hawkeye state
Initialize Hawkeye state
Initialize Hawkeye state
CPU 6 Bimodal branch predictor
Initialize Hawkeye state
Initialize Hawkeye state
Initialize Hawkeye state
Initialize Hawkeye state
Initialize Hawkeye state
Initialize Hawkeye state
Initialize Hawkeye state
Initialize Hawkeye state
CPU 7 Bimodal branch predictor
Initialize Hawkeye state
Initialize Hawkeye state
Initialize Hawkeye state
Initialize Hawkeye state
Initialize Hawkeye state
Initialize Hawkeye state
Initialize Hawkeye state
Initialize Hawkeye state
Heartbeat CPU 4 instructions: 10000003 cycles: 4140944 heartbeat IPC: 2.41491 cumulative IPC: 2.41491 (Simulation time: 0 hr 23 min 1 sec) 
 Total Blocks : 262144 Invalid Blocks : 2405
Heartbeat CPU 3 instructions: 10000003 cycles: 4141009 heartbeat IPC: 2.41487 cumulative IPC: 2.41487 (Simulation time: 0 hr 23 min 1 sec) 
 Total Blocks : 262144 Invalid Blocks : 2405
Heartbeat CPU 5 instructions: 10000003 cycles: 4141056 heartbeat IPC: 2.41484 cumulative IPC: 2.41484 (Simulation time: 0 hr 23 min 1 sec) 
 Total Blocks : 262144 Invalid Blocks : 2405
Heartbeat CPU 6 instructions: 10000003 cycles: 4141071 heartbeat IPC: 2.41483 cumulative IPC: 2.41483 (Simulation time: 0 hr 23 min 1 sec) 
 Total Blocks : 262144 Invalid Blocks : 2405
Heartbeat CPU 7 instructions: 10000003 cycles: 4141094 heartbeat IPC: 2.41482 cumulative IPC: 2.41482 (Simulation time: 0 hr 23 min 1 sec) 
 Total Blocks : 262144 Invalid Blocks : 2405
Heartbeat CPU 0 instructions: 10000003 cycles: 4141134 heartbeat IPC: 2.4148 cumulative IPC: 2.4148 (Simulation time: 0 hr 23 min 1 sec) 
 Total Blocks : 262144 Invalid Blocks : 2405
Heartbeat CPU 1 instructions: 10000003 cycles: 4141151 heartbeat IPC: 2.41479 cumulative IPC: 2.41479 (Simulation time: 0 hr 23 min 1 sec) 
 Total Blocks : 262144 Invalid Blocks : 2405
Heartbeat CPU 2 instructions: 10000003 cycles: 4141166 heartbeat IPC: 2.41478 cumulative IPC: 2.41478 (Simulation time: 0 hr 23 min 1 sec) 
 Total Blocks : 262144 Invalid Blocks : 2405
Heartbeat CPU 4 instructions: 20000002 cycles: 8281490 heartbeat IPC: 2.41514 cumulative IPC: 2.41502 (Simulation time: 0 hr 51 min 25 sec) 
 Total Blocks : 262144 Invalid Blocks : 24
Heartbeat CPU 3 instructions: 20000002 cycles: 8281591 heartbeat IPC: 2.41512 cumulative IPC: 2.415 (Simulation time: 0 hr 51 min 25 sec) 
 Total Blocks : 262144 Invalid Blocks : 24
Heartbeat CPU 5 instructions: 20000002 cycles: 8281623 heartbeat IPC: 2.41513 cumulative IPC: 2.41499 (Simulation time: 0 hr 51 min 25 sec) 
 Total Blocks : 262144 Invalid Blocks : 24
Heartbeat CPU 6 instructions: 20000002 cycles: 8281672 heartbeat IPC: 2.41511 cumulative IPC: 2.41497 (Simulation time: 0 hr 51 min 25 sec) 
 Total Blocks : 262144 Invalid Blocks : 24
Heartbeat CPU 7 instructions: 20000002 cycles: 8281685 heartbeat IPC: 2.41511 cumulative IPC: 2.41497 (Simulation time: 0 hr 51 min 25 sec) 
 Total Blocks : 262144 Invalid Blocks : 24
Heartbeat CPU 0 instructions: 20000002 cycles: 8281717 heartbeat IPC: 2.41512 cumulative IPC: 2.41496 (Simulation time: 0 hr 51 min 25 sec) 
 Total Blocks : 262144 Invalid Blocks : 24
Heartbeat CPU 1 instructions: 20000002 cycles: 8281753 heartbeat IPC: 2.41511 cumulative IPC: 2.41495 (Simulation time: 0 hr 51 min 25 sec) 
 Total Blocks : 262144 Invalid Blocks : 24
Heartbeat CPU 2 instructions: 20000002 cycles: 8281794 heartbeat IPC: 2.41509 cumulative IPC: 2.41494 (Simulation time: 0 hr 51 min 25 sec) 
 Total Blocks : 262144 Invalid Blocks : 24
Heartbeat CPU 4 instructions: 30000001 cycles: 12421991 heartbeat IPC: 2.41517 cumulative IPC: 2.41507 (Simulation time: 1 hr 24 min 27 sec) 
 Total Blocks : 262144 Invalid Blocks : 1
Heartbeat CPU 3 instructions: 30000001 cycles: 12422108 heartbeat IPC: 2.41516 cumulative IPC: 2.41505 (Simulation time: 1 hr 24 min 27 sec) 
 Total Blocks : 262144 Invalid Blocks : 1
Heartbeat CPU 5 instructions: 30000001 cycles: 12422124 heartbeat IPC: 2.41517 cumulative IPC: 2.41505 (Simulation time: 1 hr 24 min 27 sec) 
 Total Blocks : 262144 Invalid Blocks : 1
Heartbeat CPU 6 instructions: 30000001 cycles: 12422160 heartbeat IPC: 2.41517 cumulative IPC: 2.41504 (Simulation time: 1 hr 24 min 27 sec) 
 Total Blocks : 262144 Invalid Blocks : 1
Heartbeat CPU 7 instructions: 30000001 cycles: 12422161 heartbeat IPC: 2.41518 cumulative IPC: 2.41504 (Simulation time: 1 hr 24 min 27 sec) 
 Total Blocks : 262144 Invalid Blocks : 1
Heartbeat CPU 0 instructions: 30000001 cycles: 12422213 heartbeat IPC: 2.41517 cumulative IPC: 2.41503 (Simulation time: 1 hr 24 min 27 sec) 
 Total Blocks : 262144 Invalid Blocks : 1
Heartbeat CPU 1 instructions: 30000001 cycles: 12422279 heartbeat IPC: 2.41515 cumulative IPC: 2.41502 (Simulation time: 1 hr 24 min 27 sec) 
 Total Blocks : 262144 Invalid Blocks : 1
Heartbeat CPU 2 instructions: 30000001 cycles: 12422304 heartbeat IPC: 2.41516 cumulative IPC: 2.41501 (Simulation time: 1 hr 24 min 27 sec) 
 Total Blocks : 262144 Invalid Blocks : 1
Heartbeat CPU 4 instructions: 40000002 cycles: 16562501 heartbeat IPC: 2.41516 cumulative IPC: 2.41509 (Simulation time: 2 hr 3 min 46 sec) 
 Total Blocks : 262144 Invalid Blocks : 0
Heartbeat CPU 3 instructions: 40000002 cycles: 16562625 heartbeat IPC: 2.41516 cumulative IPC: 2.41508 (Simulation time: 2 hr 3 min 46 sec) 
 Total Blocks : 262144 Invalid Blocks : 0
Heartbeat CPU 5 instructions: 40000002 cycles: 16562673 heartbeat IPC: 2.41514 cumulative IPC: 2.41507 (Simulation time: 2 hr 3 min 46 sec) 
 Total Blocks : 262144 Invalid Blocks : 0
Heartbeat CPU 6 instructions: 40000002 cycles: 16562690 heartbeat IPC: 2.41515 cumulative IPC: 2.41507 (Simulation time: 2 hr 3 min 46 sec) 
 Total Blocks : 262144 Invalid Blocks : 0
Heartbeat CPU 7 instructions: 40000002 cycles: 16562698 heartbeat IPC: 2.41515 cumulative IPC: 2.41507 (Simulation time: 2 hr 3 min 46 sec) 
 Total Blocks : 262144 Invalid Blocks : 0
Heartbeat CPU 0 instructions: 40000002 cycles: 16562746 heartbeat IPC: 2.41515 cumulative IPC: 2.41506 (Simulation time: 2 hr 3 min 46 sec) 
 Total Blocks : 262144 Invalid Blocks : 0
Heartbeat CPU 1 instructions: 40000002 cycles: 16562811 heartbeat IPC: 2.41515 cumulative IPC: 2.41505 (Simulation time: 2 hr 3 min 46 sec) 
 Total Blocks : 262144 Invalid Blocks : 0
Heartbeat CPU 2 instructions: 40000002 cycles: 16562850 heartbeat IPC: 2.41514 cumulative IPC: 2.41504 (Simulation time: 2 hr 3 min 46 sec) 
 Total Blocks : 262144 Invalid Blocks : 0
Heartbeat CPU 4 instructions: 50000001 cycles: 20702870 heartbeat IPC: 2.41524 cumulative IPC: 2.41512 (Simulation time: 2 hr 48 min 19 sec) 
 Total Blocks : 262144 Invalid Blocks : 0
Heartbeat CPU 3 instructions: 50000001 cycles: 20703012 heartbeat IPC: 2.41523 cumulative IPC: 2.41511 (Simulation time: 2 hr 48 min 19 sec) 
 Total Blocks : 262144 Invalid Blocks : 0
Heartbeat CPU 5 instructions: 50000001 cycles: 20703064 heartbeat IPC: 2.41523 cumulative IPC: 2.4151 (Simulation time: 2 hr 48 min 19 sec) 
 Total Blocks : 262144 Invalid Blocks : 0
Heartbeat CPU 7 instructions: 50000001 cycles: 20703086 heartbeat IPC: 2.41523 cumulative IPC: 2.4151 (Simulation time: 2 hr 48 min 19 sec) 
 Total Blocks : 262144 Invalid Blocks : 0
Heartbeat CPU 6 instructions: 50000001 cycles: 20703108 heartbeat IPC: 2.41521 cumulative IPC: 2.4151 (Simulation time: 2 hr 48 min 19 sec) 
 Total Blocks : 262144 Invalid Blocks : 0
Heartbeat CPU 0 instructions: 50000001 cycles: 20703135 heartbeat IPC: 2.41523 cumulative IPC: 2.41509 (Simulation time: 2 hr 48 min 19 sec) 
 Total Blocks : 262144 Invalid Blocks : 0
Heartbeat CPU 1 instructions: 50000001 cycles: 20703199 heartbeat IPC: 2.41523 cumulative IPC: 2.41509 (Simulation time: 2 hr 48 min 19 sec) 
 Total Blocks : 262144 Invalid Blocks : 0
Heartbeat CPU 2 instructions: 50000001 cycles: 20703232 heartbeat IPC: 2.41524 cumulative IPC: 2.41508 (Simulation time: 2 hr 48 min 19 sec) 
 Total Blocks : 262144 Invalid Blocks : 0
Heartbeat CPU 4 instructions: 60000002 cycles: 24843412 heartbeat IPC: 2.41514 cumulative IPC: 2.41513 (Simulation time: 3 hr 35 min 46 sec) 
 Total Blocks : 262144 Invalid Blocks : 0
Heartbeat CPU 3 instructions: 60000002 cycles: 24843563 heartbeat IPC: 2.41514 cumulative IPC: 2.41511 (Simulation time: 3 hr 35 min 46 sec) 
 Total Blocks : 262144 Invalid Blocks : 0
Heartbeat CPU 5 instructions: 60000002 cycles: 24843618 heartbeat IPC: 2.41514 cumulative IPC: 2.41511 (Simulation time: 3 hr 35 min 46 sec) 
 Total Blocks : 262144 Invalid Blocks : 0
Heartbeat CPU 6 instructions: 60000002 cycles: 24843623 heartbeat IPC: 2.41516 cumulative IPC: 2.41511 (Simulation time: 3 hr 35 min 46 sec) 
 Total Blocks : 262144 Invalid Blocks : 0
Heartbeat CPU 0 instructions: 60000002 cycles: 24843672 heartbeat IPC: 2.41515 cumulative IPC: 2.4151 (Simulation time: 3 hr 35 min 46 sec) 
 Total Blocks : 262144 Invalid Blocks : 0
Heartbeat CPU 7 instructions: 60000002 cycles: 24843687 heartbeat IPC: 2.41511 cumulative IPC: 2.4151 (Simulation time: 3 hr 35 min 46 sec) 
 Total Blocks : 262144 Invalid Blocks : 0
Heartbeat CPU 1 instructions: 60000002 cycles: 24843740 heartbeat IPC: 2.41514 cumulative IPC: 2.4151 (Simulation time: 3 hr 35 min 46 sec) 
 Total Blocks : 262144 Invalid Blocks : 0
Heartbeat CPU 2 instructions: 60000002 cycles: 24843769 heartbeat IPC: 2.41515 cumulative IPC: 2.41509 (Simulation time: 3 hr 35 min 46 sec) 
 Total Blocks : 262144 Invalid Blocks : 0
Heartbeat CPU 4 instructions: 70000001 cycles: 28983639 heartbeat IPC: 2.41533 cumulative IPC: 2.41516 (Simulation time: 4 hr 25 min 30 sec) 
 Total Blocks : 262144 Invalid Blocks : 0
Heartbeat CPU 3 instructions: 70000001 cycles: 28983795 heartbeat IPC: 2.41532 cumulative IPC: 2.41514 (Simulation time: 4 hr 25 min 31 sec) 
 Total Blocks : 262144 Invalid Blocks : 0
Heartbeat CPU 5 instructions: 70000001 cycles: 28983840 heartbeat IPC: 2.41533 cumulative IPC: 2.41514 (Simulation time: 4 hr 25 min 31 sec) 
 Total Blocks : 262144 Invalid Blocks : 0
Heartbeat CPU 6 instructions: 70000001 cycles: 28983860 heartbeat IPC: 2.41532 cumulative IPC: 2.41514 (Simulation time: 4 hr 25 min 31 sec) 
 Total Blocks : 262144 Invalid Blocks : 0
Heartbeat CPU 0 instructions: 70000001 cycles: 28983906 heartbeat IPC: 2.41532 cumulative IPC: 2.41513 (Simulation time: 4 hr 25 min 31 sec) 
 Total Blocks : 262144 Invalid Blocks : 0
Heartbeat CPU 7 instructions: 70000001 cycles: 28983911 heartbeat IPC: 2.41533 cumulative IPC: 2.41513 (Simulation time: 4 hr 25 min 31 sec) 
 Total Blocks : 262144 Invalid Blocks : 0
Heartbeat CPU 1 instructions: 70000001 cycles: 28983961 heartbeat IPC: 2.41533 cumulative IPC: 2.41513 (Simulation time: 4 hr 25 min 31 sec) 
 Total Blocks : 262144 Invalid Blocks : 0
Heartbeat CPU 2 instructions: 70000001 cycles: 28983980 heartbeat IPC: 2.41534 cumulative IPC: 2.41513 (Simulation time: 4 hr 25 min 31 sec) 
 Total Blocks : 262144 Invalid Blocks : 0
Heartbeat CPU 4 instructions: 80000002 cycles: 33124010 heartbeat IPC: 2.41524 cumulative IPC: 2.41517 (Simulation time: 5 hr 22 min 6 sec) 
 Total Blocks : 262144 Invalid Blocks : 0
Heartbeat CPU 3 instructions: 80000002 cycles: 33124180 heartbeat IPC: 2.41523 cumulative IPC: 2.41515 (Simulation time: 5 hr 22 min 6 sec) 
 Total Blocks : 262144 Invalid Blocks : 0
Heartbeat CPU 5 instructions: 80000002 cycles: 33124246 heartbeat IPC: 2.41522 cumulative IPC: 2.41515 (Simulation time: 5 hr 22 min 6 sec) 
 Total Blocks : 262144 Invalid Blocks : 0
Heartbeat CPU 6 instructions: 80000002 cycles: 33124262 heartbeat IPC: 2.41522 cumulative IPC: 2.41515 (Simulation time: 5 hr 22 min 6 sec) 
 Total Blocks : 262144 Invalid Blocks : 0
Heartbeat CPU 0 instructions: 80000002 cycles: 33124300 heartbeat IPC: 2.41523 cumulative IPC: 2.41515 (Simulation time: 5 hr 22 min 6 sec) 
 Total Blocks : 262144 Invalid Blocks : 0
Heartbeat CPU 7 instructions: 80000002 cycles: 33124333 heartbeat IPC: 2.41521 cumulative IPC: 2.41514 (Simulation time: 5 hr 22 min 6 sec) 
 Total Blocks : 262144 Invalid Blocks : 0
Heartbeat CPU 1 instructions: 80000002 cycles: 33124354 heartbeat IPC: 2.41523 cumulative IPC: 2.41514 (Simulation time: 5 hr 22 min 6 sec) 
 Total Blocks : 262144 Invalid Blocks : 0
Heartbeat CPU 2 instructions: 80000002 cycles: 33124378 heartbeat IPC: 2.41523 cumulative IPC: 2.41514 (Simulation time: 5 hr 22 min 6 sec) 
 Total Blocks : 262144 Invalid Blocks : 0
Heartbeat CPU 4 instructions: 90000002 cycles: 37264655 heartbeat IPC: 2.41508 cumulative IPC: 2.41516 (Simulation time: 6 hr 23 min 46 sec) 
 Total Blocks : 262144 Invalid Blocks : 0
Heartbeat CPU 3 instructions: 90000002 cycles: 37264831 heartbeat IPC: 2.41508 cumulative IPC: 2.41515 (Simulation time: 6 hr 23 min 46 sec) 
 Total Blocks : 262144 Invalid Blocks : 0
Heartbeat CPU 5 instructions: 90000002 cycles: 37264889 heartbeat IPC: 2.41508 cumulative IPC: 2.41514 (Simulation time: 6 hr 23 min 46 sec) 
 Total Blocks : 262144 Invalid Blocks : 0
Heartbeat CPU 6 instructions: 90000002 cycles: 37264923 heartbeat IPC: 2.41507 cumulative IPC: 2.41514 (Simulation time: 6 hr 23 min 46 sec) 
 Total Blocks : 262144 Invalid Blocks : 0
Heartbeat CPU 7 instructions: 90000002 cycles: 37264947 heartbeat IPC: 2.4151 cumulative IPC: 2.41514 (Simulation time: 6 hr 23 min 46 sec) 
 Total Blocks : 262144 Invalid Blocks : 0
Heartbeat CPU 0 instructions: 90000002 cycles: 37264980 heartbeat IPC: 2.41506 cumulative IPC: 2.41514 (Simulation time: 6 hr 23 min 46 sec) 
 Total Blocks : 262144 Invalid Blocks : 0
Heartbeat CPU 1 instructions: 90000002 cycles: 37265009 heartbeat IPC: 2.41508 cumulative IPC: 2.41513 (Simulation time: 6 hr 23 min 46 sec) 
 Total Blocks : 262144 Invalid Blocks : 0
Heartbeat CPU 2 instructions: 90000002 cycles: 37265035 heartbeat IPC: 2.41508 cumulative IPC: 2.41513 (Simulation time: 6 hr 23 min 46 sec) 
 Total Blocks : 262144 Invalid Blocks : 0
Heartbeat CPU 4 instructions: 100000001 cycles: 41405139 heartbeat IPC: 2.41518 cumulative IPC: 2.41516 (Simulation time: 7 hr 29 min 42 sec) 
 Total Blocks : 262144 Invalid Blocks : 0
Heartbeat CPU 3 instructions: 100000001 cycles: 41405324 heartbeat IPC: 2.41517 cumulative IPC: 2.41515 (Simulation time: 7 hr 29 min 42 sec) 
 Total Blocks : 262144 Invalid Blocks : 0
Heartbeat CPU 5 instructions: 100000001 cycles: 41405380 heartbeat IPC: 2.41517 cumulative IPC: 2.41515 (Simulation time: 7 hr 29 min 42 sec) 
 Total Blocks : 262144 Invalid Blocks : 0
Heartbeat CPU 6 instructions: 100000001 cycles: 41405401 heartbeat IPC: 2.41518 cumulative IPC: 2.41514 (Simulation time: 7 hr 29 min 42 sec) 
 Total Blocks : 262144 Invalid Blocks : 0
Heartbeat CPU 7 instructions: 100000001 cycles: 41405421 heartbeat IPC: 2.41518 cumulative IPC: 2.41514 (Simulation time: 7 hr 29 min 42 sec) 
 Total Blocks : 262144 Invalid Blocks : 0
Heartbeat CPU 0 instructions: 100000001 cycles: 41405455 heartbeat IPC: 2.41518 cumulative IPC: 2.41514 (Simulation time: 7 hr 29 min 42 sec) 
 Total Blocks : 262144 Invalid Blocks : 0
Heartbeat CPU 1 instructions: 100000001 cycles: 41405509 heartbeat IPC: 2.41517 cumulative IPC: 2.41514 (Simulation time: 7 hr 29 min 42 sec) 
 Total Blocks : 262144 Invalid Blocks : 0
Heartbeat CPU 2 instructions: 100000001 cycles: 41405532 heartbeat IPC: 2.41517 cumulative IPC: 2.41514 (Simulation time: 7 hr 29 min 42 sec) 
 Total Blocks : 262144 Invalid Blocks : 0
Heartbeat CPU 4 instructions: 110000000 cycles: 45545838 heartbeat IPC: 2.41505 cumulative IPC: 2.41515 (Simulation time: 8 hr 38 min 19 sec) 
 Total Blocks : 262144 Invalid Blocks : 0
Heartbeat CPU 3 instructions: 110000000 cycles: 45546028 heartbeat IPC: 2.41505 cumulative IPC: 2.41514 (Simulation time: 8 hr 38 min 19 sec) 
 Total Blocks : 262144 Invalid Blocks : 0
Heartbeat CPU 5 instructions: 110000000 cycles: 45546095 heartbeat IPC: 2.41504 cumulative IPC: 2.41514 (Simulation time: 8 hr 38 min 19 sec) 
 Total Blocks : 262144 Invalid Blocks : 0
Heartbeat CPU 6 instructions: 110000000 cycles: 45546112 heartbeat IPC: 2.41504 cumulative IPC: 2.41513 (Simulation time: 8 hr 38 min 19 sec) 
 Total Blocks : 262144 Invalid Blocks : 0
Heartbeat CPU 0 instructions: 110000000 cycles: 45546175 heartbeat IPC: 2.41504 cumulative IPC: 2.41513 (Simulation time: 8 hr 38 min 19 sec) 
 Total Blocks : 262144 Invalid Blocks : 0
Heartbeat CPU 7 instructions: 110000000 cycles: 45546192 heartbeat IPC: 2.41501 cumulative IPC: 2.41513 (Simulation time: 8 hr 38 min 19 sec) 
 Total Blocks : 262144 Invalid Blocks : 0
Heartbeat CPU 1 instructions: 110000000 cycles: 45546219 heartbeat IPC: 2.41504 cumulative IPC: 2.41513 (Simulation time: 8 hr 38 min 19 sec) 
 Total Blocks : 262144 Invalid Blocks : 0
Heartbeat CPU 2 instructions: 110000000 cycles: 45546248 heartbeat IPC: 2.41504 cumulative IPC: 2.41513 (Simulation time: 8 hr 38 min 19 sec) 
 Total Blocks : 262144 Invalid Blocks : 0
Heartbeat CPU 4 instructions: 120000000 cycles: 49686451 heartbeat IPC: 2.4151 cumulative IPC: 2.41515 (Simulation time: 9 hr 49 min 22 sec) 
 Total Blocks : 262144 Invalid Blocks : 0
Heartbeat CPU 3 instructions: 120000000 cycles: 49686638 heartbeat IPC: 2.4151 cumulative IPC: 2.41514 (Simulation time: 9 hr 49 min 22 sec) 
 Total Blocks : 262144 Invalid Blocks : 0
Heartbeat CPU 5 instructions: 120000000 cycles: 49686702 heartbeat IPC: 2.4151 cumulative IPC: 2.41513 (Simulation time: 9 hr 49 min 22 sec) 
 Total Blocks : 262144 Invalid Blocks : 0
Heartbeat CPU 6 instructions: 120000000 cycles: 49686753 heartbeat IPC: 2.41509 cumulative IPC: 2.41513 (Simulation time: 9 hr 49 min 22 sec) 
 Total Blocks : 262144 Invalid Blocks : 0
Heartbeat CPU 0 instructions: 120000000 cycles: 49686783 heartbeat IPC: 2.4151 cumulative IPC: 2.41513 (Simulation time: 9 hr 49 min 22 sec) 
 Total Blocks : 262144 Invalid Blocks : 0
Heartbeat CPU 7 instructions: 120000000 cycles: 49686800 heartbeat IPC: 2.4151 cumulative IPC: 2.41513 (Simulation time: 9 hr 49 min 22 sec) 
 Total Blocks : 262144 Invalid Blocks : 0
Heartbeat CPU 1 instructions: 120000000 cycles: 49686860 heartbeat IPC: 2.41509 cumulative IPC: 2.41513 (Simulation time: 9 hr 49 min 22 sec) 
 Total Blocks : 262144 Invalid Blocks : 0
Heartbeat CPU 2 instructions: 120000000 cycles: 49686876 heartbeat IPC: 2.41509 cumulative IPC: 2.41512 (Simulation time: 9 hr 49 min 22 sec) 
 Total Blocks : 262144 Invalid Blocks : 0
Heartbeat CPU 4 instructions: 130000003 cycles: 53827194 heartbeat IPC: 2.41503 cumulative IPC: 2.41514 (Simulation time: 10 hr 59 min 51 sec) 
 Total Blocks : 262144 Invalid Blocks : 0
Heartbeat CPU 3 instructions: 130000003 cycles: 53827376 heartbeat IPC: 2.41503 cumulative IPC: 2.41513 (Simulation time: 10 hr 59 min 51 sec) 
 Total Blocks : 262144 Invalid Blocks : 0
Heartbeat CPU 5 instructions: 130000003 cycles: 53827442 heartbeat IPC: 2.41503 cumulative IPC: 2.41513 (Simulation time: 10 hr 59 min 51 sec) 
 Total Blocks : 262144 Invalid Blocks : 0
Heartbeat CPU 6 instructions: 130000003 cycles: 53827480 heartbeat IPC: 2.41504 cumulative IPC: 2.41512 (Simulation time: 10 hr 59 min 51 sec) 
 Total Blocks : 262144 Invalid Blocks : 0
Heartbeat CPU 0 instructions: 130000003 cycles: 53827508 heartbeat IPC: 2.41504 cumulative IPC: 2.41512 (Simulation time: 10 hr 59 min 51 sec) 
 Total Blocks : 262144 Invalid Blocks : 0
Heartbeat CPU 7 instructions: 130000003 cycles: 53827528 heartbeat IPC: 2.41504 cumulative IPC: 2.41512 (Simulation time: 10 hr 59 min 51 sec) 
 Total Blocks : 262144 Invalid Blocks : 0
Heartbeat CPU 1 instructions: 130000003 cycles: 53827585 heartbeat IPC: 2.41504 cumulative IPC: 2.41512 (Simulation time: 10 hr 59 min 51 sec) 
 Total Blocks : 262144 Invalid Blocks : 0
Heartbeat CPU 2 instructions: 130000003 cycles: 53827604 heartbeat IPC: 2.41504 cumulative IPC: 2.41512 (Simulation time: 10 hr 59 min 51 sec) 
 Total Blocks : 262144 Invalid Blocks : 0
Heartbeat CPU 4 instructions: 140000001 cycles: 57967986 heartbeat IPC: 2.415 cumulative IPC: 2.41513 (Simulation time: 12 hr 10 min 37 sec) 
 Total Blocks : 262144 Invalid Blocks : 0
Heartbeat CPU 3 instructions: 140000001 cycles: 57968172 heartbeat IPC: 2.41499 cumulative IPC: 2.41512 (Simulation time: 12 hr 10 min 37 sec) 
 Total Blocks : 262144 Invalid Blocks : 0
Heartbeat CPU 5 instructions: 140000001 cycles: 57968232 heartbeat IPC: 2.415 cumulative IPC: 2.41512 (Simulation time: 12 hr 10 min 37 sec) 
 Total Blocks : 262144 Invalid Blocks : 0
Heartbeat CPU 6 instructions: 140000001 cycles: 57968259 heartbeat IPC: 2.415 cumulative IPC: 2.41511 (Simulation time: 12 hr 10 min 37 sec) 
 Total Blocks : 262144 Invalid Blocks : 0
Heartbeat CPU 0 instructions: 140000001 cycles: 57968290 heartbeat IPC: 2.415 cumulative IPC: 2.41511 (Simulation time: 12 hr 10 min 37 sec) 
 Total Blocks : 262144 Invalid Blocks : 0
Heartbeat CPU 7 instructions: 140000001 cycles: 57968305 heartbeat IPC: 2.41501 cumulative IPC: 2.41511 (Simulation time: 12 hr 10 min 37 sec) 
 Total Blocks : 262144 Invalid Blocks : 0
Heartbeat CPU 1 instructions: 140000001 cycles: 57968359 heartbeat IPC: 2.41501 cumulative IPC: 2.41511 (Simulation time: 12 hr 10 min 37 sec) 
 Total Blocks : 262144 Invalid Blocks : 0
Heartbeat CPU 2 instructions: 140000001 cycles: 57968387 heartbeat IPC: 2.415 cumulative IPC: 2.41511 (Simulation time: 12 hr 10 min 37 sec) 
 Total Blocks : 262144 Invalid Blocks : 0
Heartbeat CPU 4 instructions: 150000001 cycles: 62108224 heartbeat IPC: 2.41532 cumulative IPC: 2.41514 (Simulation time: 13 hr 22 min 37 sec) 
 Total Blocks : 262144 Invalid Blocks : 0
Heartbeat CPU 3 instructions: 150000001 cycles: 62108421 heartbeat IPC: 2.41531 cumulative IPC: 2.41513 (Simulation time: 13 hr 22 min 37 sec) 
 Total Blocks : 262144 Invalid Blocks : 0
Heartbeat CPU 5 instructions: 150000001 cycles: 62108485 heartbeat IPC: 2.41531 cumulative IPC: 2.41513 (Simulation time: 13 hr 22 min 37 sec) 
 Total Blocks : 262144 Invalid Blocks : 0
Heartbeat CPU 6 instructions: 150000001 cycles: 62108501 heartbeat IPC: 2.41532 cumulative IPC: 2.41513 (Simulation time: 13 hr 22 min 37 sec) 
 Total Blocks : 262144 Invalid Blocks : 0
Heartbeat CPU 0 instructions: 150000001 cycles: 62108539 heartbeat IPC: 2.41531 cumulative IPC: 2.41513 (Simulation time: 13 hr 22 min 37 sec) 
 Total Blocks : 262144 Invalid Blocks : 0
Heartbeat CPU 7 instructions: 150000001 cycles: 62108587 heartbeat IPC: 2.41529 cumulative IPC: 2.41512 (Simulation time: 13 hr 22 min 38 sec) 
 Total Blocks : 262144 Invalid Blocks : 0
Heartbeat CPU 1 instructions: 150000001 cycles: 62108607 heartbeat IPC: 2.41531 cumulative IPC: 2.41512 (Simulation time: 13 hr 22 min 38 sec) 
 Total Blocks : 262144 Invalid Blocks : 0
Heartbeat CPU 2 instructions: 150000001 cycles: 62108642 heartbeat IPC: 2.41531 cumulative IPC: 2.41512 (Simulation time: 13 hr 22 min 38 sec) 
 Total Blocks : 262144 Invalid Blocks : 0
Heartbeat CPU 4 instructions: 160000000 cycles: 66248818 heartbeat IPC: 2.41511 cumulative IPC: 2.41514 (Simulation time: 14 hr 35 min 39 sec) 
 Total Blocks : 262144 Invalid Blocks : 0
Heartbeat CPU 3 instructions: 160000000 cycles: 66249015 heartbeat IPC: 2.41511 cumulative IPC: 2.41513 (Simulation time: 14 hr 35 min 40 sec) 
 Total Blocks : 262144 Invalid Blocks : 0
Heartbeat CPU 5 instructions: 160000000 cycles: 66249084 heartbeat IPC: 2.41511 cumulative IPC: 2.41513 (Simulation time: 14 hr 35 min 40 sec) 
 Total Blocks : 262144 Invalid Blocks : 0
Heartbeat CPU 6 instructions: 160000000 cycles: 66249096 heartbeat IPC: 2.41511 cumulative IPC: 2.41513 (Simulation time: 14 hr 35 min 40 sec) 
 Total Blocks : 262144 Invalid Blocks : 0
Heartbeat CPU 0 instructions: 160000000 cycles: 66249141 heartbeat IPC: 2.41511 cumulative IPC: 2.41513 (Simulation time: 14 hr 35 min 40 sec) 
 Total Blocks : 262144 Invalid Blocks : 0
Heartbeat CPU 7 instructions: 160000000 cycles: 66249160 heartbeat IPC: 2.41512 cumulative IPC: 2.41512 (Simulation time: 14 hr 35 min 40 sec) 
 Total Blocks : 262144 Invalid Blocks : 0
Heartbeat CPU 1 instructions: 160000000 cycles: 66249187 heartbeat IPC: 2.41512 cumulative IPC: 2.41512 (Simulation time: 14 hr 35 min 40 sec) 
 Total Blocks : 262144 Invalid Blocks : 0
Heartbeat CPU 2 instructions: 160000000 cycles: 66249222 heartbeat IPC: 2.41512 cumulative IPC: 2.41512 (Simulation time: 14 hr 35 min 40 sec) 
 Total Blocks : 262144 Invalid Blocks : 0
Heartbeat CPU 4 instructions: 170000003 cycles: 70389175 heartbeat IPC: 2.41525 cumulative IPC: 2.41514 (Simulation time: 15 hr 52 min 8 sec) 
 Total Blocks : 262144 Invalid Blocks : 0
Heartbeat CPU 3 instructions: 170000003 cycles: 70389376 heartbeat IPC: 2.41525 cumulative IPC: 2.41514 (Simulation time: 15 hr 52 min 8 sec) 
 Total Blocks : 262144 Invalid Blocks : 0
Heartbeat CPU 5 instructions: 170000003 cycles: 70389435 heartbeat IPC: 2.41525 cumulative IPC: 2.41514 (Simulation time: 15 hr 52 min 8 sec) 
 Total Blocks : 262144 Invalid Blocks : 0
Heartbeat CPU 6 instructions: 170000003 cycles: 70389452 heartbeat IPC: 2.41525 cumulative IPC: 2.41513 (Simulation time: 15 hr 52 min 8 sec) 
 Total Blocks : 262144 Invalid Blocks : 0
Heartbeat CPU 0 instructions: 170000003 cycles: 70389507 heartbeat IPC: 2.41525 cumulative IPC: 2.41513 (Simulation time: 15 hr 52 min 8 sec) 
 Total Blocks : 262144 Invalid Blocks : 0
Heartbeat CPU 7 instructions: 170000003 cycles: 70389526 heartbeat IPC: 2.41525 cumulative IPC: 2.41513 (Simulation time: 15 hr 52 min 8 sec) 
 Total Blocks : 262144 Invalid Blocks : 0
Heartbeat CPU 1 instructions: 170000003 cycles: 70389561 heartbeat IPC: 2.41524 cumulative IPC: 2.41513 (Simulation time: 15 hr 52 min 8 sec) 
 Total Blocks : 262144 Invalid Blocks : 0
Heartbeat CPU 2 instructions: 170000003 cycles: 70389581 heartbeat IPC: 2.41525 cumulative IPC: 2.41513 (Simulation time: 15 hr 52 min 8 sec) 
 Total Blocks : 262144 Invalid Blocks : 0
Heartbeat CPU 4 instructions: 180000001 cycles: 74529772 heartbeat IPC: 2.41511 cumulative IPC: 2.41514 (Simulation time: 17 hr 11 min 36 sec) 
 Total Blocks : 262144 Invalid Blocks : 0
Heartbeat CPU 3 instructions: 180000001 cycles: 74529968 heartbeat IPC: 2.41511 cumulative IPC: 2.41514 (Simulation time: 17 hr 11 min 36 sec) 
 Total Blocks : 262144 Invalid Blocks : 0
Heartbeat CPU 5 instructions: 180000001 cycles: 74530029 heartbeat IPC: 2.41511 cumulative IPC: 2.41513 (Simulation time: 17 hr 11 min 36 sec) 
 Total Blocks : 262144 Invalid Blocks : 0
Heartbeat CPU 6 instructions: 180000001 cycles: 74530050 heartbeat IPC: 2.41511 cumulative IPC: 2.41513 (Simulation time: 17 hr 11 min 36 sec) 
 Total Blocks : 262144 Invalid Blocks : 0
Heartbeat CPU 7 instructions: 180000001 cycles: 74530096 heartbeat IPC: 2.41513 cumulative IPC: 2.41513 (Simulation time: 17 hr 11 min 36 sec) 
 Total Blocks : 262144 Invalid Blocks : 0
Heartbeat CPU 0 instructions: 180000001 cycles: 74530136 heartbeat IPC: 2.41509 cumulative IPC: 2.41513 (Simulation time: 17 hr 11 min 36 sec) 
 Total Blocks : 262144 Invalid Blocks : 0
Heartbeat CPU 1 instructions: 180000001 cycles: 74530182 heartbeat IPC: 2.4151 cumulative IPC: 2.41513 (Simulation time: 17 hr 11 min 36 sec) 
 Total Blocks : 262144 Invalid Blocks : 0
Heartbeat CPU 2 instructions: 180000001 cycles: 74530195 heartbeat IPC: 2.4151 cumulative IPC: 2.41513 (Simulation time: 17 hr 11 min 36 sec) 
 Total Blocks : 262144 Invalid Blocks : 0
Heartbeat CPU 4 instructions: 190000002 cycles: 78670319 heartbeat IPC: 2.41514 cumulative IPC: 2.41514 (Simulation time: 18 hr 34 min 32 sec) 
 Total Blocks : 262144 Invalid Blocks : 0
Heartbeat CPU 3 instructions: 190000002 cycles: 78670515 heartbeat IPC: 2.41514 cumulative IPC: 2.41514 (Simulation time: 18 hr 34 min 32 sec) 
 Total Blocks : 262144 Invalid Blocks : 0
Heartbeat CPU 5 instructions: 190000002 cycles: 78670580 heartbeat IPC: 2.41514 cumulative IPC: 2.41513 (Simulation time: 18 hr 34 min 32 sec) 
 Total Blocks : 262144 Invalid Blocks : 0
Heartbeat CPU 6 instructions: 190000002 cycles: 78670593 heartbeat IPC: 2.41514 cumulative IPC: 2.41513 (Simulation time: 18 hr 34 min 32 sec) 
 Total Blocks : 262144 Invalid Blocks : 0
Heartbeat CPU 7 instructions: 190000002 cycles: 78670620 heartbeat IPC: 2.41515 cumulative IPC: 2.41513 (Simulation time: 18 hr 34 min 32 sec) 
 Total Blocks : 262144 Invalid Blocks : 0
Heartbeat CPU 0 instructions: 190000002 cycles: 78670667 heartbeat IPC: 2.41515 cumulative IPC: 2.41513 (Simulation time: 18 hr 34 min 33 sec) 
 Total Blocks : 262144 Invalid Blocks : 0
Heartbeat CPU 1 instructions: 190000002 cycles: 78670728 heartbeat IPC: 2.41514 cumulative IPC: 2.41513 (Simulation time: 18 hr 34 min 33 sec) 
 Total Blocks : 262144 Invalid Blocks : 0
Heartbeat CPU 2 instructions: 190000002 cycles: 78670754 heartbeat IPC: 2.41513 cumulative IPC: 2.41513 (Simulation time: 18 hr 34 min 33 sec) 
 Total Blocks : 262144 Invalid Blocks : 0
Heartbeat CPU 4 instructions: 200000003 cycles: 82810771 heartbeat IPC: 2.4152 cumulative IPC: 2.41514 (Simulation time: 19 hr 58 min 44 sec) 
 Total Blocks : 262144 Invalid Blocks : 0
Heartbeat CPU 3 instructions: 200000003 cycles: 82810976 heartbeat IPC: 2.41519 cumulative IPC: 2.41514 (Simulation time: 19 hr 58 min 44 sec) 
 Total Blocks : 262144 Invalid Blocks : 0
Heartbeat CPU 5 instructions: 200000003 cycles: 82811032 heartbeat IPC: 2.4152 cumulative IPC: 2.41514 (Simulation time: 19 hr 58 min 44 sec) 
 Total Blocks : 262144 Invalid Blocks : 0
Heartbeat CPU 6 instructions: 200000003 cycles: 82811061 heartbeat IPC: 2.41519 cumulative IPC: 2.41514 (Simulation time: 19 hr 58 min 44 sec) 
 Total Blocks : 262144 Invalid Blocks : 0
Heartbeat CPU 7 instructions: 200000003 cycles: 82811087 heartbeat IPC: 2.41519 cumulative IPC: 2.41514 (Simulation time: 19 hr 58 min 44 sec) 
 Total Blocks : 262144 Invalid Blocks : 0
Heartbeat CPU 0 instructions: 200000003 cycles: 82811120 heartbeat IPC: 2.41519 cumulative IPC: 2.41513 (Simulation time: 19 hr 58 min 44 sec) 
 Total Blocks : 262144 Invalid Blocks : 0
Heartbeat CPU 1 instructions: 200000003 cycles: 82811189 heartbeat IPC: 2.41519 cumulative IPC: 2.41513 (Simulation time: 19 hr 58 min 44 sec) 
 Total Blocks : 262144 Invalid Blocks : 0
Heartbeat CPU 2 instructions: 200000003 cycles: 82811216 heartbeat IPC: 2.41519 cumulative IPC: 2.41513 (Simulation time: 19 hr 58 min 44 sec) 
 Total Blocks : 262144 Invalid Blocks : 0

Warmup complete CPU 0 instructions: 200000234 cycles: 82811216 (Simulation time: 19 hr 58 min 44 sec) 
Warmup complete CPU 1 instructions: 200000065 cycles: 82811216 (Simulation time: 19 hr 58 min 44 sec) 
Warmup complete CPU 2 instructions: 200000003 cycles: 82811216 (Simulation time: 19 hr 58 min 44 sec) 
Warmup complete CPU 3 instructions: 200000531 cycles: 82811215 (Simulation time: 19 hr 58 min 44 sec) 
Warmup complete CPU 4 instructions: 200001101 cycles: 82811215 (Simulation time: 19 hr 58 min 44 sec) 
Warmup complete CPU 5 instructions: 200000418 cycles: 82811215 (Simulation time: 19 hr 58 min 44 sec) 
Warmup complete CPU 6 instructions: 200000418 cycles: 82811215 (Simulation time: 19 hr 58 min 44 sec) 
Warmup complete CPU 7 instructions: 200000326 cycles: 82811215 (Simulation time: 19 hr 58 min 44 sec) 

Heartbeat CPU 5 instructions: 210000002 cycles: 98609986 heartbeat IPC: 0.632953 cumulative IPC: 0.632934 (Simulation time: 22 hr 54 min 28 sec) 
 Total Blocks : 262144 Invalid Blocks : 0
Heartbeat CPU 4 instructions: 210000002 cycles: 98633999 heartbeat IPC: 0.631982 cumulative IPC: 0.631931 (Simulation time: 22 hr 54 min 39 sec) 
 Total Blocks : 262144 Invalid Blocks : 0
Heartbeat CPU 6 instructions: 210000002 cycles: 98693510 heartbeat IPC: 0.629626 cumulative IPC: 0.629606 (Simulation time: 22 hr 55 min 7 sec) 
 Total Blocks : 262144 Invalid Blocks : 0
Heartbeat CPU 3 instructions: 210000002 cycles: 98706810 heartbeat IPC: 0.629096 cumulative IPC: 0.629072 (Simulation time: 22 hr 55 min 14 sec) 
 Total Blocks : 262144 Invalid Blocks : 0
Heartbeat CPU 2 instructions: 210000002 cycles: 98715621 heartbeat IPC: 0.628757 cumulative IPC: 0.628757 (Simulation time: 22 hr 55 min 22 sec) 
 Total Blocks : 262144 Invalid Blocks : 0
Heartbeat CPU 1 instructions: 210000002 cycles: 98725440 heartbeat IPC: 0.628368 cumulative IPC: 0.628365 (Simulation time: 22 hr 55 min 28 sec) 
 Total Blocks : 262144 Invalid Blocks : 0
Heartbeat CPU 0 instructions: 210000002 cycles: 98736500 heartbeat IPC: 0.627928 cumulative IPC: 0.627918 (Simulation time: 22 hr 55 min 35 sec) 
 Total Blocks : 262144 Invalid Blocks : 0
Heartbeat CPU 7 instructions: 210000002 cycles: 98767023 heartbeat IPC: 0.626726 cumulative IPC: 0.626711 (Simulation time: 22 hr 55 min 50 sec) 
 Total Blocks : 262144 Invalid Blocks : 0
Heartbeat CPU 5 instructions: 220000000 cycles: 114412925 heartbeat IPC: 0.632794 cumulative IPC: 0.632864 (Simulation time: 25 hr 15 min 16 sec) 
 Total Blocks : 262144 Invalid Blocks : 0
Heartbeat CPU 6 instructions: 220000000 cycles: 114459413 heartbeat IPC: 0.63428 cumulative IPC: 0.631934 (Simulation time: 25 hr 15 min 44 sec) 
 Total Blocks : 262144 Invalid Blocks : 0
Heartbeat CPU 4 instructions: 220000000 cycles: 114475227 heartbeat IPC: 0.631264 cumulative IPC: 0.631597 (Simulation time: 25 hr 15 min 52 sec) 
 Total Blocks : 262144 Invalid Blocks : 0
Heartbeat CPU 3 instructions: 220000000 cycles: 114497168 heartbeat IPC: 0.633298 cumulative IPC: 0.631178 (Simulation time: 25 hr 16 min 2 sec) 
 Total Blocks : 262144 Invalid Blocks : 0
Heartbeat CPU 0 instructions: 220000000 cycles: 114549983 heartbeat IPC: 0.632372 cumulative IPC: 0.630137 (Simulation time: 25 hr 16 min 27 sec) 
 Total Blocks : 262144 Invalid Blocks : 0
Heartbeat CPU 2 instructions: 220000000 cycles: 114553467 heartbeat IPC: 0.631399 cumulative IPC: 0.630075 (Simulation time: 25 hr 16 min 28 sec) 
 Total Blocks : 262144 Invalid Blocks : 0
Heartbeat CPU 1 instructions: 220000000 cycles: 114562633 heartbeat IPC: 0.631425 cumulative IPC: 0.629891 (Simulation time: 25 hr 16 min 32 sec) 
 Total Blocks : 262144 Invalid Blocks : 0
Heartbeat CPU 7 instructions: 220000000 cycles: 114576094 heartbeat IPC: 0.632548 cumulative IPC: 0.629616 (Simulation time: 25 hr 16 min 42 sec) 
 Total Blocks : 262144 Invalid Blocks : 0
Heartbeat CPU 5 instructions: 230000003 cycles: 130275764 heartbeat IPC: 0.630404 cumulative IPC: 0.632042 (Simulation time: 28 hr 17 min 35 sec) 
 Total Blocks : 262144 Invalid Blocks : 0
Heartbeat CPU 6 instructions: 230000003 cycles: 130354972 heartbeat IPC: 0.629107 cumulative IPC: 0.630989 (Simulation time: 28 hr 18 min 36 sec) 
 Total Blocks : 262144 Invalid Blocks : 0
Heartbeat CPU 3 instructions: 230000003 cycles: 130370000 heartbeat IPC: 0.630008 cumulative IPC: 0.630787 (Simulation time: 28 hr 18 min 52 sec) 
 Total Blocks : 262144 Invalid Blocks : 0
Heartbeat CPU 1 instructions: 230000003 cycles: 130436834 heartbeat IPC: 0.629953 cumulative IPC: 0.629912 (Simulation time: 28 hr 19 min 44 sec) 
 Total Blocks : 262144 Invalid Blocks : 0
Heartbeat CPU 4 instructions: 230000003 cycles: 130443648 heartbeat IPC: 0.626236 cumulative IPC: 0.6298 (Simulation time: 28 hr 19 min 50 sec) 
 Total Blocks : 262144 Invalid Blocks : 0
Heartbeat CPU 0 instructions: 230000003 cycles: 130501540 heartbeat IPC: 0.626898 cumulative IPC: 0.629054 (Simulation time: 28 hr 20 min 42 sec) 
 Total Blocks : 262144 Invalid Blocks : 0
Heartbeat CPU 7 instructions: 230000003 cycles: 130579933 heartbeat IPC: 0.62485 cumulative IPC: 0.628019 (Simulation time: 28 hr 21 min 43 sec) 
 Total Blocks : 262144 Invalid Blocks : 0
Heartbeat CPU 2 instructions: 230000003 cycles: 130587807 heartbeat IPC: 0.623662 cumulative IPC: 0.627923 (Simulation time: 28 hr 21 min 51 sec) 
 Total Blocks : 262144 Invalid Blocks : 0
Heartbeat CPU 5 instructions: 240000003 cycles: 146106320 heartbeat IPC: 0.63169 cumulative IPC: 0.631954 (Simulation time: 31 hr 52 min 53 sec) 
 Total Blocks : 262144 Invalid Blocks : 0
Heartbeat CPU 6 instructions: 240000003 cycles: 146160285 heartbeat IPC: 0.632699 cumulative IPC: 0.631415 (Simulation time: 31 hr 53 min 39 sec) 
 Total Blocks : 262144 Invalid Blocks : 0
Heartbeat CPU 0 instructions: 240000003 cycles: 146235131 heartbeat IPC: 0.635583 cumulative IPC: 0.630673 (Simulation time: 31 hr 54 min 36 sec) 
 Total Blocks : 262144 Invalid Blocks : 0
Heartbeat CPU 1 instructions: 240000003 cycles: 146243044 heartbeat IPC: 0.632663 cumulative IPC: 0.630597 (Simulation time: 31 hr 54 min 41 sec) 
 Total Blocks : 262144 Invalid Blocks : 0
Heartbeat CPU 3 instructions: 240000003 cycles: 146257556 heartbeat IPC: 0.629423 cumulative IPC: 0.630446 (Simulation time: 31 hr 54 min 56 sec) 
 Total Blocks : 262144 Invalid Blocks : 0
Heartbeat CPU 4 instructions: 240000003 cycles: 146345959 heartbeat IPC: 0.628839 cumulative IPC: 0.62956 (Simulation time: 31 hr 56 min 8 sec) 
 Total Blocks : 262144 Invalid Blocks : 0
Heartbeat CPU 7 instructions: 240000003 cycles: 146381756 heartbeat IPC: 0.632838 cumulative IPC: 0.629217 (Simulation time: 31 hr 56 min 40 sec) 
 Total Blocks : 262144 Invalid Blocks : 0
Heartbeat CPU 2 instructions: 240000003 cycles: 146513650 heartbeat IPC: 0.62791 cumulative IPC: 0.627919 (Simulation time: 31 hr 58 min 29 sec) 
 Total Blocks : 262144 Invalid Blocks : 0
Heartbeat CPU 5 instructions: 250000003 cycles: 161885875 heartbeat IPC: 0.633731 cumulative IPC: 0.632309 (Simulation time: 35 hr 35 min 41 sec) 
 Total Blocks : 262144 Invalid Blocks : 0
Heartbeat CPU 6 instructions: 250000003 cycles: 162075708 heartbeat IPC: 0.628321 cumulative IPC: 0.630794 (Simulation time: 35 hr 38 min 33 sec) 
 Total Blocks : 262144 Invalid Blocks : 0
Heartbeat CPU 0 instructions: 250000003 cycles: 162076254 heartbeat IPC: 0.631268 cumulative IPC: 0.630792 (Simulation time: 35 hr 38 min 33 sec) 
 Total Blocks : 262144 Invalid Blocks : 0
Heartbeat CPU 3 instructions: 250000003 cycles: 162089762 heartbeat IPC: 0.631624 cumulative IPC: 0.630681 (Simulation time: 35 hr 38 min 44 sec) 
 Total Blocks : 262144 Invalid Blocks : 0
Heartbeat CPU 1 instructions: 250000003 cycles: 162159892 heartbeat IPC: 0.628265 cumulative IPC: 0.630129 (Simulation time: 35 hr 39 min 50 sec) 
 Total Blocks : 262144 Invalid Blocks : 0
Heartbeat CPU 4 instructions: 250000003 cycles: 162242459 heartbeat IPC: 0.629069 cumulative IPC: 0.629461 (Simulation time: 35 hr 40 min 57 sec) 
 Total Blocks : 262144 Invalid Blocks : 0
Heartbeat CPU 7 instructions: 250000003 cycles: 162324246 heartbeat IPC: 0.627255 cumulative IPC: 0.628824 (Simulation time: 35 hr 42 min 0 sec) 
 Total Blocks : 262144 Invalid Blocks : 0
Heartbeat CPU 2 instructions: 250000003 cycles: 162474161 heartbeat IPC: 0.626546 cumulative IPC: 0.627644 (Simulation time: 35 hr 44 min 7 sec) 
 Total Blocks : 262144 Invalid Blocks : 0
Heartbeat CPU 5 instructions: 260000001 cycles: 177829516 heartbeat IPC: 0.627209 cumulative IPC: 0.631453 (Simulation time: 39 hr 37 min 56 sec) 
 Total Blocks : 262144 Invalid Blocks : 0
Heartbeat CPU 0 instructions: 260000001 cycles: 177997849 heartbeat IPC: 0.628078 cumulative IPC: 0.630338 (Simulation time: 39 hr 40 min 15 sec) 
 Total Blocks : 262144 Invalid Blocks : 0
Heartbeat CPU 3 instructions: 260000001 cycles: 178001255 heartbeat IPC: 0.628476 cumulative IPC: 0.630313 (Simulation time: 39 hr 40 min 17 sec) 
 Total Blocks : 262144 Invalid Blocks : 0
Heartbeat CPU 6 instructions: 260000001 cycles: 178014508 heartbeat IPC: 0.6274 cumulative IPC: 0.630226 (Simulation time: 39 hr 40 min 27 sec) 
 Total Blocks : 262144 Invalid Blocks : 0
Heartbeat CPU 1 instructions: 260000001 cycles: 178019108 heartbeat IPC: 0.630548 cumulative IPC: 0.630199 (Simulation time: 39 hr 40 min 29 sec) 
 Total Blocks : 262144 Invalid Blocks : 0
Heartbeat CPU 4 instructions: 260000001 cycles: 178164503 heartbeat IPC: 0.62806 cumulative IPC: 0.629227 (Simulation time: 39 hr 42 min 38 sec) 
 Total Blocks : 262144 Invalid Blocks : 0
Heartbeat CPU 7 instructions: 260000001 cycles: 178196527 heartbeat IPC: 0.630029 cumulative IPC: 0.629024 (Simulation time: 39 hr 43 min 4 sec) 
 Total Blocks : 262144 Invalid Blocks : 0
Heartbeat CPU 2 instructions: 260000001 cycles: 178392054 heartbeat IPC: 0.628224 cumulative IPC: 0.627741 (Simulation time: 39 hr 45 min 37 sec) 
 Total Blocks : 262144 Invalid Blocks : 0
Heartbeat CPU 5 instructions: 270000001 cycles: 193728200 heartbeat IPC: 0.628983 cumulative IPC: 0.631099 (Simulation time: 43 hr 26 min 46 sec) 
 Total Blocks : 262144 Invalid Blocks : 0
Heartbeat CPU 6 instructions: 270000001 cycles: 193762506 heartbeat IPC: 0.635001 cumulative IPC: 0.630904 (Simulation time: 43 hr 27 min 18 sec) 
 Total Blocks : 262144 Invalid Blocks : 0
Heartbeat CPU 3 instructions: 270000001 cycles: 193801345 heartbeat IPC: 0.632908 cumulative IPC: 0.630682 (Simulation time: 43 hr 27 min 57 sec) 
 Total Blocks : 262144 Invalid Blocks : 0
Heartbeat CPU 1 instructions: 270000001 cycles: 193932783 heartbeat IPC: 0.62839 cumulative IPC: 0.62994 (Simulation time: 43 hr 29 min 58 sec) 
 Total Blocks : 262144 Invalid Blocks : 0
Heartbeat CPU 0 instructions: 270000001 cycles: 193947359 heartbeat IPC: 0.626979 cumulative IPC: 0.629856 (Simulation time: 43 hr 30 min 12 sec) 
 Total Blocks : 262144 Invalid Blocks : 0
Heartbeat CPU 4 instructions: 270000001 cycles: 193995994 heartbeat IPC: 0.631652 cumulative IPC: 0.629573 (Simulation time: 43 hr 30 min 51 sec) 
 Total Blocks : 262144 Invalid Blocks : 0
Heartbeat CPU 7 instructions: 270000001 cycles: 194091249 heartbeat IPC: 0.62914 cumulative IPC: 0.629041 (Simulation time: 43 hr 32 min 16 sec) 
 Total Blocks : 262144 Invalid Blocks : 0
Heartbeat CPU 2 instructions: 270000002 cycles: 194331110 heartbeat IPC: 0.62739 cumulative IPC: 0.627691 (Simulation time: 43 hr 35 min 48 sec) 
 Total Blocks : 262144 Invalid Blocks : 0
Heartbeat CPU 5 instructions: 280000000 cycles: 209674317 heartbeat IPC: 0.627112 cumulative IPC: 0.630598 (Simulation time: 47 hr 17 min 11 sec) 
 Total Blocks : 262144 Invalid Blocks : 0
Heartbeat CPU 3 instructions: 280000002 cycles: 209690763 heartbeat IPC: 0.62935 cumulative IPC: 0.630515 (Simulation time: 47 hr 17 min 28 sec) 
 Total Blocks : 262144 Invalid Blocks : 0
Heartbeat CPU 6 instructions: 280000002 cycles: 209722030 heartbeat IPC: 0.626585 cumulative IPC: 0.630361 (Simulation time: 47 hr 17 min 48 sec) 
 Total Blocks : 262144 Invalid Blocks : 0
Heartbeat CPU 0 instructions: 280000002 cycles: 209820411 heartbeat IPC: 0.629999 cumulative IPC: 0.629874 (Simulation time: 47 hr 19 min 31 sec) 
 Total Blocks : 262144 Invalid Blocks : 0
Heartbeat CPU 1 instructions: 280000002 cycles: 209833307 heartbeat IPC: 0.62891 cumulative IPC: 0.629811 (Simulation time: 47 hr 19 min 40 sec) 
 Total Blocks : 262144 Invalid Blocks : 0
Heartbeat CPU 4 instructions: 280000002 cycles: 209970955 heartbeat IPC: 0.62598 cumulative IPC: 0.629121 (Simulation time: 47 hr 21 min 37 sec) 
 Total Blocks : 262144 Invalid Blocks : 0
Heartbeat CPU 7 instructions: 280000002 cycles: 210025444 heartbeat IPC: 0.627581 cumulative IPC: 0.628858 (Simulation time: 47 hr 22 min 29 sec) 
 Total Blocks : 262144 Invalid Blocks : 0
Heartbeat CPU 2 instructions: 280000002 cycles: 210248714 heartbeat IPC: 0.628235 cumulative IPC: 0.627759 (Simulation time: 47 hr 25 min 58 sec) 
 Total Blocks : 262144 Invalid Blocks : 0
Heartbeat CPU 3 instructions: 290000000 cycles: 225534117 heartbeat IPC: 0.631179 cumulative IPC: 0.630589 (Simulation time: 51 hr 11 min 42 sec) 
 Total Blocks : 262144 Invalid Blocks : 0
Heartbeat CPU 5 instructions: 290000002 cycles: 225608200 heartbeat IPC: 0.627594 cumulative IPC: 0.630262 (Simulation time: 51 hr 12 min 29 sec) 
 Total Blocks : 262144 Invalid Blocks : 0
Heartbeat CPU 1 instructions: 290000002 cycles: 225665032 heartbeat IPC: 0.631643 cumulative IPC: 0.630014 (Simulation time: 51 hr 13 min 22 sec) 
 Total Blocks : 262144 Invalid Blocks : 0
Heartbeat CPU 6 instructions: 290000000 cycles: 225709603 heartbeat IPC: 0.625486 cumulative IPC: 0.629815 (Simulation time: 51 hr 13 min 52 sec) 
 Total Blocks : 262144 Invalid Blocks : 0
Heartbeat CPU 4 instructions: 290000002 cycles: 225821138 heartbeat IPC: 0.630908 cumulative IPC: 0.629319 (Simulation time: 51 hr 15 min 29 sec) 
 Total Blocks : 262144 Invalid Blocks : 0
Heartbeat CPU 7 instructions: 290000002 cycles: 225904239 heartbeat IPC: 0.629771 cumulative IPC: 0.628959 (Simulation time: 51 hr 16 min 45 sec) 
 Total Blocks : 262144 Invalid Blocks : 0
Heartbeat CPU 0 instructions: 290000000 cycles: 225934945 heartbeat IPC: 0.620558 cumulative IPC: 0.628825 (Simulation time: 51 hr 17 min 9 sec) 
 Total Blocks : 262144 Invalid Blocks : 0
Heartbeat CPU 2 instructions: 290000002 cycles: 226153436 heartbeat IPC: 0.628744 cumulative IPC: 0.627868 (Simulation time: 51 hr 20 min 36 sec) 
 Total Blocks : 262144 Invalid Blocks : 0
Heartbeat CPU 3 instructions: 300000001 cycles: 241391312 heartbeat IPC: 0.630629 cumulative IPC: 0.630593 (Simulation time: 55 hr 5 min 23 sec) 
 Total Blocks : 262144 Invalid Blocks : 0
Heartbeat CPU 5 instructions: 300000001 cycles: 241533248 heartbeat IPC: 0.627942 cumulative IPC: 0.63003 (Simulation time: 55 hr 7 min 19 sec) 
 Total Blocks : 262144 Invalid Blocks : 0
Heartbeat CPU 1 instructions: 300000001 cycles: 241536384 heartbeat IPC: 0.630066 cumulative IPC: 0.630019 (Simulation time: 55 hr 7 min 21 sec) 
 Total Blocks : 262144 Invalid Blocks : 0
Heartbeat CPU 6 instructions: 300000001 cycles: 241554255 heartbeat IPC: 0.631128 cumulative IPC: 0.629946 (Simulation time: 55 hr 7 min 32 sec) 
 Total Blocks : 262144 Invalid Blocks : 0
Heartbeat CPU 4 instructions: 300000001 cycles: 241674893 heartbeat IPC: 0.630765 cumulative IPC: 0.629464 (Simulation time: 55 hr 9 min 13 sec) 
 Total Blocks : 262144 Invalid Blocks : 0
Heartbeat CPU 0 instructions: 300000001 cycles: 241817681 heartbeat IPC: 0.629615 cumulative IPC: 0.628904 (Simulation time: 55 hr 11 min 13 sec) 
 Total Blocks : 262144 Invalid Blocks : 0
Heartbeat CPU 7 instructions: 300000001 cycles: 241832348 heartbeat IPC: 0.627821 cumulative IPC: 0.628845 (Simulation time: 55 hr 11 min 24 sec) 
 Total Blocks : 262144 Invalid Blocks : 0
Heartbeat CPU 2 instructions: 300000001 cycles: 242047437 heartbeat IPC: 0.629168 cumulative IPC: 0.627998 (Simulation time: 55 hr 14 min 43 sec) 
 Total Blocks : 262144 Invalid Blocks : 0
Heartbeat CPU 3 instructions: 310000003 cycles: 257161676 heartbeat IPC: 0.634101 cumulative IPC: 0.63091 (Simulation time: 58 hr 43 min 7 sec) 
 Total Blocks : 262144 Invalid Blocks : 0
Heartbeat CPU 5 instructions: 310000003 cycles: 257356956 heartbeat IPC: 0.631963 cumulative IPC: 0.630205 (Simulation time: 58 hr 46 min 13 sec) 
 Total Blocks : 262144 Invalid Blocks : 0
Heartbeat CPU 4 instructions: 310000003 cycles: 257479572 heartbeat IPC: 0.632724 cumulative IPC: 0.629759 (Simulation time: 58 hr 47 min 51 sec) 
 Total Blocks : 262144 Invalid Blocks : 0
Heartbeat CPU 6 instructions: 310000003 cycles: 257496564 heartbeat IPC: 0.627262 cumulative IPC: 0.629701 (Simulation time: 58 hr 48 min 14 sec) 
 Total Blocks : 262144 Invalid Blocks : 0
Heartbeat CPU 1 instructions: 310000002 cycles: 257511558 heartbeat IPC: 0.625971 cumulative IPC: 0.629649 (Simulation time: 58 hr 48 min 29 sec) 
 Total Blocks : 262144 Invalid Blocks : 0
Heartbeat CPU 0 instructions: 310000003 cycles: 257735972 heartbeat IPC: 0.628208 cumulative IPC: 0.628841 (Simulation time: 58 hr 51 min 53 sec) 
 Total Blocks : 262144 Invalid Blocks : 0
Heartbeat CPU 7 instructions: 310000002 cycles: 257781202 heartbeat IPC: 0.627004 cumulative IPC: 0.628677 (Simulation time: 58 hr 52 min 33 sec) 
 Total Blocks : 262144 Invalid Blocks : 0
Heartbeat CPU 2 instructions: 310000003 cycles: 258018712 heartbeat IPC: 0.626124 cumulative IPC: 0.627827 (Simulation time: 58 hr 56 min 8 sec) 
 Total Blocks : 262144 Invalid Blocks : 0
Heartbeat CPU 3 instructions: 320000003 cycles: 273152205 heartbeat IPC: 0.62537 cumulative IPC: 0.630445 (Simulation time: 62 hr 50 min 24 sec) 
 Total Blocks : 262144 Invalid Blocks : 0
Heartbeat CPU 5 instructions: 320000003 cycles: 273264856 heartbeat IPC: 0.628618 cumulative IPC: 0.630072 (Simulation time: 62 hr 52 min 14 sec) 
 Total Blocks : 262144 Invalid Blocks : 0
Heartbeat CPU 4 instructions: 320000003 cycles: 273305752 heartbeat IPC: 0.631864 cumulative IPC: 0.629934 (Simulation time: 62 hr 53 min 2 sec) 
 Total Blocks : 262144 Invalid Blocks : 0
Heartbeat CPU 1 instructions: 320000003 cycles: 273377547 heartbeat IPC: 0.630279 cumulative IPC: 0.629702 (Simulation time: 62 hr 53 min 56 sec) 
 Total Blocks : 262144 Invalid Blocks : 0
Heartbeat CPU 6 instructions: 320000003 cycles: 273557644 heartbeat IPC: 0.622623 cumulative IPC: 0.629105 (Simulation time: 62 hr 57 min 2 sec) 
 Total Blocks : 262144 Invalid Blocks : 0
Heartbeat CPU 7 instructions: 320000003 cycles: 273765221 heartbeat IPC: 0.625625 cumulative IPC: 0.628422 (Simulation time: 62 hr 59 min 53 sec) 
 Total Blocks : 262144 Invalid Blocks : 0
Heartbeat CPU 0 instructions: 320000003 cycles: 273779244 heartbeat IPC: 0.623314 cumulative IPC: 0.628376 (Simulation time: 63 hr 0 min 13 sec) 
 Total Blocks : 262144 Invalid Blocks : 0
Heartbeat CPU 2 instructions: 320000003 cycles: 273896482 heartbeat IPC: 0.629811 cumulative IPC: 0.627992 (Simulation time: 63 hr 1 min 53 sec) 
 Total Blocks : 262144 Invalid Blocks : 0
Heartbeat CPU 3 instructions: 330000000 cycles: 289110231 heartbeat IPC: 0.626644 cumulative IPC: 0.630151 (Simulation time: 66 hr 3 min 54 sec) 
 Total Blocks : 262144 Invalid Blocks : 0
Heartbeat CPU 5 instructions: 330000000 cycles: 289148088 heartbeat IPC: 0.629595 cumulative IPC: 0.630036 (Simulation time: 66 hr 4 min 26 sec) 
 Total Blocks : 262144 Invalid Blocks : 0
Heartbeat CPU 4 instructions: 330000000 cycles: 289223432 heartbeat IPC: 0.628232 cumulative IPC: 0.629802 (Simulation time: 66 hr 5 min 9 sec) 
 Total Blocks : 262144 Invalid Blocks : 0
Heartbeat CPU 1 instructions: 330000000 cycles: 289346849 heartbeat IPC: 0.626201 cumulative IPC: 0.629431 (Simulation time: 66 hr 6 min 32 sec) 
 Total Blocks : 262144 Invalid Blocks : 0
Heartbeat CPU 6 instructions: 330000000 cycles: 289549323 heartbeat IPC: 0.625325 cumulative IPC: 0.628813 (Simulation time: 66 hr 8 min 48 sec) 
 Total Blocks : 262144 Invalid Blocks : 0
Heartbeat CPU 7 instructions: 330000000 cycles: 289593389 heartbeat IPC: 0.631785 cumulative IPC: 0.628679 (Simulation time: 66 hr 9 min 16 sec) 
 Total Blocks : 262144 Invalid Blocks : 0
Heartbeat CPU 2 instructions: 330000000 cycles: 289719341 heartbeat IPC: 0.631997 cumulative IPC: 0.628298 (Simulation time: 66 hr 10 min 44 sec) 
 Total Blocks : 262144 Invalid Blocks : 0
Heartbeat CPU 0 instructions: 330000000 cycles: 289813378 heartbeat IPC: 0.623669 cumulative IPC: 0.628012 (Simulation time: 66 hr 11 min 44 sec) 
 Total Blocks : 262144 Invalid Blocks : 0
Heartbeat CPU 3 instructions: 340000000 cycles: 305088524 heartbeat IPC: 0.625849 cumulative IPC: 0.629842 (Simulation time: 69 hr 1 min 15 sec) 
 Total Blocks : 262144 Invalid Blocks : 0
Heartbeat CPU 5 instructions: 340000000 cycles: 305143011 heartbeat IPC: 0.625198 cumulative IPC: 0.629688 (Simulation time: 69 hr 1 min 50 sec) 
 Total Blocks : 262144 Invalid Blocks : 0
Heartbeat CPU 4 instructions: 340000000 cycles: 305221836 heartbeat IPC: 0.625062 cumulative IPC: 0.629461 (Simulation time: 69 hr 2 min 42 sec) 
 Total Blocks : 262144 Invalid Blocks : 0
Heartbeat CPU 1 instructions: 340000000 cycles: 305419476 heartbeat IPC: 0.622176 cumulative IPC: 0.628907 (Simulation time: 69 hr 4 min 50 sec) 
 Total Blocks : 262144 Invalid Blocks : 0
Heartbeat CPU 6 instructions: 340000000 cycles: 305527989 heartbeat IPC: 0.625834 cumulative IPC: 0.628599 (Simulation time: 69 hr 6 min 3 sec) 
 Total Blocks : 262144 Invalid Blocks : 0
Heartbeat CPU 7 instructions: 340000000 cycles: 305612555 heartbeat IPC: 0.624252 cumulative IPC: 0.628361 (Simulation time: 69 hr 6 min 58 sec) 
 Total Blocks : 262144 Invalid Blocks : 0
Heartbeat CPU 2 instructions: 340000000 cycles: 305677294 heartbeat IPC: 0.626647 cumulative IPC: 0.62818 (Simulation time: 69 hr 7 min 45 sec) 
 Total Blocks : 262144 Invalid Blocks : 0
Heartbeat CPU 0 instructions: 340000000 cycles: 305847038 heartbeat IPC: 0.623688 cumulative IPC: 0.627701 (Simulation time: 69 hr 9 min 41 sec) 
 Total Blocks : 262144 Invalid Blocks : 0
Heartbeat CPU 4 instructions: 350000002 cycles: 320964548 heartbeat IPC: 0.635215 cumulative IPC: 0.629842 (Simulation time: 72 hr 1 min 57 sec) 
 Total Blocks : 262144 Invalid Blocks : 0
Heartbeat CPU 5 instructions: 350000002 cycles: 321009814 heartbeat IPC: 0.630247 cumulative IPC: 0.629725 (Simulation time: 72 hr 2 min 23 sec) 
 Total Blocks : 262144 Invalid Blocks : 0
Heartbeat CPU 3 instructions: 350000002 cycles: 321102007 heartbeat IPC: 0.624474 cumulative IPC: 0.629481 (Simulation time: 72 hr 3 min 30 sec) 
 Total Blocks : 262144 Invalid Blocks : 0
Heartbeat CPU 1 instructions: 350000002 cycles: 321273021 heartbeat IPC: 0.630774 cumulative IPC: 0.629031 (Simulation time: 72 hr 5 min 19 sec) 
 Total Blocks : 262144 Invalid Blocks : 0
Heartbeat CPU 6 instructions: 350000002 cycles: 321363921 heartbeat IPC: 0.631475 cumulative IPC: 0.62879 (Simulation time: 72 hr 6 min 26 sec) 
 Total Blocks : 262144 Invalid Blocks : 0
Heartbeat CPU 7 instructions: 350000002 cycles: 321518243 heartbeat IPC: 0.628706 cumulative IPC: 0.628384 (Simulation time: 72 hr 8 min 13 sec) 
 Total Blocks : 262144 Invalid Blocks : 0
Heartbeat CPU 2 instructions: 350000002 cycles: 321668835 heartbeat IPC: 0.625331 cumulative IPC: 0.627989 (Simulation time: 72 hr 9 min 59 sec) 
 Total Blocks : 262144 Invalid Blocks : 0
Heartbeat CPU 0 instructions: 350000002 cycles: 321748390 heartbeat IPC: 0.628877 cumulative IPC: 0.627779 (Simulation time: 72 hr 10 min 50 sec) 
 Total Blocks : 262144 Invalid Blocks : 0
Heartbeat CPU 5 instructions: 360000003 cycles: 336941161 heartbeat IPC: 0.627693 cumulative IPC: 0.629598 (Simulation time: 75 hr 12 min 19 sec) 
 Total Blocks : 262144 Invalid Blocks : 0
Heartbeat CPU 4 instructions: 360000003 cycles: 336997929 heartbeat IPC: 0.623699 cumulative IPC: 0.629454 (Simulation time: 75 hr 13 min 22 sec) 
 Total Blocks : 262144 Invalid Blocks : 0
Heartbeat CPU 3 instructions: 360000003 cycles: 337028745 heartbeat IPC: 0.627875 cumulative IPC: 0.62938 (Simulation time: 75 hr 13 min 49 sec) 
 Total Blocks : 262144 Invalid Blocks : 0
Heartbeat CPU 6 instructions: 360000003 cycles: 337085011 heartbeat IPC: 0.636088 cumulative IPC: 0.629241 (Simulation time: 75 hr 14 min 44 sec) 
 Total Blocks : 262144 Invalid Blocks : 0
Heartbeat CPU 1 instructions: 360000003 cycles: 337181762 heartbeat IPC: 0.628585 cumulative IPC: 0.629003 (Simulation time: 75 hr 16 min 26 sec) 
 Total Blocks : 262144 Invalid Blocks : 0
Heartbeat CPU 2 instructions: 360000003 cycles: 337484512 heartbeat IPC: 0.632284 cumulative IPC: 0.628256 (Simulation time: 75 hr 21 min 29 sec) 
 Total Blocks : 262144 Invalid Blocks : 0
Heartbeat CPU 7 instructions: 360000003 cycles: 337500042 heartbeat IPC: 0.625712 cumulative IPC: 0.628216 (Simulation time: 75 hr 21 min 41 sec) 
 Total Blocks : 262144 Invalid Blocks : 0
Heartbeat CPU 0 instructions: 360000003 cycles: 337632227 heartbeat IPC: 0.629571 cumulative IPC: 0.627891 (Simulation time: 75 hr 23 min 45 sec) 
 Total Blocks : 262144 Invalid Blocks : 0
Heartbeat CPU 5 instructions: 370000000 cycles: 352830912 heartbeat IPC: 0.629336 cumulative IPC: 0.629582 (Simulation time: 79 hr 39 min 32 sec) 
 Total Blocks : 262144 Invalid Blocks : 0
Heartbeat CPU 6 instructions: 370000002 cycles: 352838811 heartbeat IPC: 0.634767 cumulative IPC: 0.629564 (Simulation time: 79 hr 39 min 36 sec) 
 Total Blocks : 262144 Invalid Blocks : 0
Heartbeat CPU 4 instructions: 370000000 cycles: 352912091 heartbeat IPC: 0.628371 cumulative IPC: 0.62939 (Simulation time: 79 hr 41 min 3 sec) 
 Total Blocks : 262144 Invalid Blocks : 0
Heartbeat CPU 3 instructions: 370000002 cycles: 352960691 heartbeat IPC: 0.62767 cumulative IPC: 0.629279 (Simulation time: 79 hr 41 min 39 sec) 
 Total Blocks : 262144 Invalid Blocks : 0
Heartbeat CPU 1 instructions: 370000002 cycles: 353184488 heartbeat IPC: 0.624893 cumulative IPC: 0.62876 (Simulation time: 79 hr 45 min 37 sec) 
 Total Blocks : 262144 Invalid Blocks : 0
Heartbeat CPU 7 instructions: 370000000 cycles: 353402907 heartbeat IPC: 0.628817 cumulative IPC: 0.628252 (Simulation time: 79 hr 49 min 22 sec) 
 Total Blocks : 262144 Invalid Blocks : 0
Heartbeat CPU 2 instructions: 370000002 cycles: 353410717 heartbeat IPC: 0.627896 cumulative IPC: 0.628235 (Simulation time: 79 hr 49 min 27 sec) 
 Total Blocks : 262144 Invalid Blocks : 0
Heartbeat CPU 0 instructions: 370000002 cycles: 353541446 heartbeat IPC: 0.628566 cumulative IPC: 0.627931 (Simulation time: 79 hr 51 min 39 sec) 
 Total Blocks : 262144 Invalid Blocks : 0
Heartbeat CPU 5 instructions: 380000003 cycles: 368634540 heartbeat IPC: 0.632766 cumulative IPC: 0.629758 (Simulation time: 84 hr 8 min 4 sec) 
 Total Blocks : 262144 Invalid Blocks : 0
Heartbeat CPU 6 instructions: 380000003 cycles: 368750544 heartbeat IPC: 0.628467 cumulative IPC: 0.629503 (Simulation time: 84 hr 10 min 5 sec) 
 Total Blocks : 262144 Invalid Blocks : 0
Heartbeat CPU 4 instructions: 380000003 cycles: 368872153 heartbeat IPC: 0.626564 cumulative IPC: 0.629233 (Simulation time: 84 hr 12 min 16 sec) 
 Total Blocks : 262144 Invalid Blocks : 0
Heartbeat CPU 3 instructions: 380000003 cycles: 368887731 heartbeat IPC: 0.627863 cumulative IPC: 0.6292 (Simulation time: 84 hr 12 min 34 sec) 
 Total Blocks : 262144 Invalid Blocks : 0
Heartbeat CPU 1 instructions: 380000003 cycles: 369105543 heartbeat IPC: 0.628099 cumulative IPC: 0.628723 (Simulation time: 84 hr 16 min 7 sec) 
 Total Blocks : 262144 Invalid Blocks : 0
Heartbeat CPU 7 instructions: 380000003 cycles: 369310550 heartbeat IPC: 0.628629 cumulative IPC: 0.628273 (Simulation time: 84 hr 19 min 41 sec) 
 Total Blocks : 262144 Invalid Blocks : 0
Heartbeat CPU 2 instructions: 380000003 cycles: 369392591 heartbeat IPC: 0.625709 cumulative IPC: 0.628094 (Simulation time: 84 hr 21 min 2 sec) 
 Total Blocks : 262144 Invalid Blocks : 0
Heartbeat CPU 0 instructions: 380000003 cycles: 369549156 heartbeat IPC: 0.624699 cumulative IPC: 0.62775 (Simulation time: 84 hr 23 min 43 sec) 
 Total Blocks : 262144 Invalid Blocks : 0
Heartbeat CPU 5 instructions: 390000001 cycles: 384671137 heartbeat IPC: 0.623574 cumulative IPC: 0.62943 (Simulation time: 88 hr 29 min 45 sec) 
 Total Blocks : 262144 Invalid Blocks : 0
Heartbeat CPU 6 instructions: 390000001 cycles: 384773574 heartbeat IPC: 0.624102 cumulative IPC: 0.629216 (Simulation time: 88 hr 31 min 7 sec) 
 Total Blocks : 262144 Invalid Blocks : 0
Heartbeat CPU 3 instructions: 390000001 cycles: 384804117 heartbeat IPC: 0.628283 cumulative IPC: 0.629152 (Simulation time: 88 hr 31 min 19 sec) 
 Total Blocks : 262144 Invalid Blocks : 0
Heartbeat CPU 4 instructions: 390000001 cycles: 385000498 heartbeat IPC: 0.620026 cumulative IPC: 0.628741 (Simulation time: 88 hr 33 min 50 sec) 
 Total Blocks : 262144 Invalid Blocks : 0
Heartbeat CPU 1 instructions: 390000001 cycles: 385036299 heartbeat IPC: 0.627716 cumulative IPC: 0.62867 (Simulation time: 88 hr 34 min 14 sec) 
 Total Blocks : 262144 Invalid Blocks : 0
Heartbeat CPU 7 instructions: 390000001 cycles: 385249381 heartbeat IPC: 0.627398 cumulative IPC: 0.628227 (Simulation time: 88 hr 36 min 47 sec) 
 Total Blocks : 262144 Invalid Blocks : 0
Heartbeat CPU 2 instructions: 390000001 cycles: 385374024 heartbeat IPC: 0.625726 cumulative IPC: 0.627969 (Simulation time: 88 hr 38 min 25 sec) 
 Total Blocks : 262144 Invalid Blocks : 0
Heartbeat CPU 0 instructions: 390000001 cycles: 385553957 heartbeat IPC: 0.624812 cumulative IPC: 0.627595 (Simulation time: 88 hr 40 min 27 sec) 
 Total Blocks : 262144 Invalid Blocks : 0
Heartbeat CPU 5 instructions: 400000002 cycles: 400514954 heartbeat IPC: 0.631161 cumulative IPC: 0.629516 (Simulation time: 91 hr 44 min 40 sec) 
 Total Blocks : 262144 Invalid Blocks : 0
Finished CPU 5 instructions: 200000001 cycles: 317703994 cumulative IPC: 0.629517 (Simulation time: 91 hr 44 min 40 sec) 
Heartbeat CPU 6 instructions: 400000002 cycles: 400704064 heartbeat IPC: 0.627727 cumulative IPC: 0.629142 (Simulation time: 91 hr 47 min 3 sec) 
 Total Blocks : 262144 Invalid Blocks : 0
Finished CPU 6 instructions: 200000001 cycles: 317893117 cumulative IPC: 0.629142 (Simulation time: 91 hr 47 min 3 sec) 
Heartbeat CPU 3 instructions: 400000002 cycles: 400745975 heartbeat IPC: 0.62728 cumulative IPC: 0.629058 (Simulation time: 91 hr 47 min 34 sec) 
 Total Blocks : 262144 Invalid Blocks : 0
Finished CPU 3 instructions: 200000001 cycles: 317935141 cumulative IPC: 0.629059 (Simulation time: 91 hr 47 min 34 sec) 
Heartbeat CPU 4 instructions: 400000000 cycles: 400837885 heartbeat IPC: 0.631417 cumulative IPC: 0.628875 (Simulation time: 91 hr 48 min 51 sec) 
 Total Blocks : 262144 Invalid Blocks : 0
Finished CPU 4 instructions: 200000002 cycles: 318027372 cumulative IPC: 0.628877 (Simulation time: 91 hr 48 min 51 sec) 
Heartbeat CPU 1 instructions: 400000002 cycles: 400991852 heartbeat IPC: 0.626741 cumulative IPC: 0.628574 (Simulation time: 91 hr 50 min 45 sec) 
 Total Blocks : 262144 Invalid Blocks : 0
Finished CPU 1 instructions: 200000002 cycles: 318180665 cumulative IPC: 0.628574 (Simulation time: 91 hr 50 min 45 sec) 
Heartbeat CPU 2 instructions: 400000002 cycles: 401125545 heartbeat IPC: 0.634859 cumulative IPC: 0.62831 (Simulation time: 91 hr 52 min 19 sec) 
 Total Blocks : 262144 Invalid Blocks : 0
Finished CPU 2 instructions: 200000003 cycles: 318314330 cumulative IPC: 0.62831 (Simulation time: 91 hr 52 min 19 sec) 
Heartbeat CPU 7 instructions: 400000002 cycles: 401162393 heartbeat IPC: 0.628417 cumulative IPC: 0.628236 (Simulation time: 91 hr 52 min 43 sec) 
 Total Blocks : 262144 Invalid Blocks : 0
Finished CPU 7 instructions: 200000000 cycles: 318351401 cumulative IPC: 0.628237 (Simulation time: 91 hr 52 min 43 sec) 
Heartbeat CPU 0 instructions: 400000002 cycles: 401426969 heartbeat IPC: 0.63 cumulative IPC: 0.627715 (Simulation time: 91 hr 56 min 5 sec) 
 Total Blocks : 262144 Invalid Blocks : 0
Finished CPU 0 instructions: 200000003 cycles: 318615929 cumulative IPC: 0.627715 (Simulation time: 91 hr 56 min 5 sec) 

CPU 0 Branch Prediction Accuracy: 80.621% MPKI: 1.63559 Average ROB Occupancy at Mispredict: 309.186

CPU 1 Branch Prediction Accuracy: 80.6209% MPKI: 1.6356 Average ROB Occupancy at Mispredict: 309.192

CPU 2 Branch Prediction Accuracy: 80.6209% MPKI: 1.6356 Average ROB Occupancy at Mispredict: 309.195

CPU 3 Branch Prediction Accuracy: 80.6209% MPKI: 1.63559 Average ROB Occupancy at Mispredict: 309.189

CPU 4 Branch Prediction Accuracy: 80.6209% MPKI: 1.63559 Average ROB Occupancy at Mispredict: 309.189

CPU 5 Branch Prediction Accuracy: 80.621% MPKI: 1.63559 Average ROB Occupancy at Mispredict: 309.18

CPU 6 Branch Prediction Accuracy: 80.621% MPKI: 1.63559 Average ROB Occupancy at Mispredict: 309.183

CPU 7 Branch Prediction Accuracy: 80.621% MPKI: 1.63559 Average ROB Occupancy at Mispredict: 309.197

ChampSim completed all CPUs

Total Simulation Statistics (not including warmup)

CPU 0 cumulative IPC: 0.627715 instructions: 200000003 cycles: 318615929
ITLB TOTAL     ACCESS: 24525415  HIT: 24525415  MISS:     0  HIT %:   100  MISS %:     0  AVERAGE MISS PENALTY: 0
ITLB LOAD      ACCESS: 24525415  HIT: 24525415  MISS:     0  HIT %:   100  MISS %:     0  AVERAGE MISS PENALTY: 0
ITLB RFO       ACCESS:     0  HIT:     0  MISS:     0  HIT %:     0  MISS %:     0  AVERAGE MISS PENALTY: 0
ITLB PREFETCH  ACCESS:     0  HIT:     0  MISS:     0  HIT %:     0  MISS %:     0  AVERAGE MISS PENALTY: 0
ITLB WRITEBACK ACCESS:     0  HIT:     0  MISS:     0  HIT %:     0  MISS %:     0  AVERAGE MISS PENALTY: 0

DTLB TOTAL     ACCESS: 47679682  HIT: 47368387  MISS: 311295  HIT %: 99.3471  MISS %: 0.652888  AVERAGE MISS PENALTY: 45.2998
DTLB LOAD      ACCESS: 30298936  HIT: 30099403  MISS: 199533  HIT %: 99.3415  MISS %: 0.658548  AVERAGE MISS PENALTY: 29.1083
DTLB RFO       ACCESS: 17380746  HIT: 17268984  MISS: 111762  HIT %: 99.357  MISS %: 0.643022  AVERAGE MISS PENALTY: 74.2071
DTLB PREFETCH  ACCESS:     0  HIT:     0  MISS:     0  HIT %:     0  MISS %:     0  AVERAGE MISS PENALTY: 0
DTLB WRITEBACK ACCESS:     0  HIT:     0  MISS:     0  HIT %:     0  MISS %:     0  AVERAGE MISS PENALTY: 0

STLB TOTAL     ACCESS: 311295  HIT: 268692  MISS: 42603  HIT %: 86.3143  MISS %: 13.6857  AVERAGE MISS PENALTY: 100
STLB LOAD      ACCESS: 199533  HIT: 175536  MISS: 23997  HIT %: 87.9734  MISS %: 12.0266  AVERAGE MISS PENALTY: 100
STLB RFO       ACCESS: 111762  HIT: 93156  MISS: 18606  HIT %: 83.3521  MISS %: 16.6479  AVERAGE MISS PENALTY: 100
STLB PREFETCH  ACCESS:     0  HIT:     0  MISS:     0  HIT %:     0  MISS %:     0  AVERAGE MISS PENALTY: 0
STLB WRITEBACK ACCESS:     0  HIT:     0  MISS:     0  HIT %:     0  MISS %:     0  AVERAGE MISS PENALTY: 0

L1D TOTAL     ACCESS: 59906158  HIT: 56770203  MISS: 3135955  HIT %: 94.7652  MISS %: 5.23478  AVERAGE MISS PENALTY: 8.07855e+06
L1D LOAD      ACCESS: 31956155  HIT: 31721706  MISS: 234449  HIT %: 99.2663  MISS %: 0.733658  AVERAGE MISS PENALTY: 1.08043e+08
L1D RFO       ACCESS: 24600921  HIT: 23408581  MISS: 1192340  HIT %: 95.1533  MISS %: 4.84673  AVERAGE MISS PENALTY: 2262.93
L1D PREFETCH  ACCESS: 3349082  HIT: 1639916  MISS: 1709166  HIT %: 48.9661  MISS %: 51.0339  AVERAGE MISS PENALTY: 404.36
L1D WRITEBACK ACCESS:     0  HIT:     0  MISS:     0  HIT %:     0  MISS %:     0  AVERAGE MISS PENALTY: 0

L1I TOTAL     ACCESS: 36104793  HIT: 36104793  MISS:     0  HIT %:   100  MISS %:     0  AVERAGE MISS PENALTY: 0
L1I LOAD      ACCESS: 36104793  HIT: 36104793  MISS:     0  HIT %:   100  MISS %:     0  AVERAGE MISS PENALTY: 0
L1I RFO       ACCESS:     0  HIT:     0  MISS:     0  HIT %:     0  MISS %:     0  AVERAGE MISS PENALTY: 0
L1I PREFETCH  ACCESS:     0  HIT:     0  MISS:     0  HIT %:     0  MISS %:     0  AVERAGE MISS PENALTY: 0
L1I WRITEBACK ACCESS:     0  HIT:     0  MISS:     0  HIT %:     0  MISS %:     0  AVERAGE MISS PENALTY: 0

L2C TOTAL     ACCESS: 6107157  HIT: 3185541  MISS: 2921616  HIT %: 52.1608  MISS %: 47.8392  AVERAGE MISS PENALTY: 8.88766e+06
L2C LOAD      ACCESS: 233230  HIT: 94562  MISS: 138668  HIT %: 40.5445  MISS %: 59.4555  AVERAGE MISS PENALTY: 1.87215e+08
L2C RFO       ACCESS: 1191624  HIT:   862  MISS: 1190762  HIT %: 0.0723383  MISS %: 99.9277  AVERAGE MISS PENALTY: 2248.74
L2C PREFETCH  ACCESS: 3484364  HIT: 1892539  MISS: 1591825  HIT %: 54.3152  MISS %: 45.6848  AVERAGE MISS PENALTY: 1793.05
L2C WRITEBACK ACCESS: 1197939  HIT: 1197578  MISS:   361  HIT %: 99.9699  MISS %: 0.0301351  AVERAGE MISS PENALTY: 0


LLC0 TOTAL     ACCESS: 514060  HIT: 133016  MISS: 381044  HIT %: 25.8756  MISS %: 74.1244  AVERAGE MISS PENALTY: 1608.72
LLC0 LOAD      ACCESS: 27503  HIT:  2223  MISS: 25280  HIT %: 8.08275  MISS %: 91.9172  AVERAGE MISS PENALTY: 1561
LLC0 RFO       ACCESS: 148841  HIT:     0  MISS: 148841  HIT %:     0  MISS %:   100  AVERAGE MISS PENALTY: 1967.62
LLC0 PREFETCH  ACCESS: 188642  HIT: 15359  MISS: 173283  HIT %: 8.14188  MISS %: 91.8581  AVERAGE MISS PENALTY: 1619.71
LLC0 WRITEBACK ACCESS: 149074  HIT: 115434  MISS: 33640  HIT %: 77.434  MISS %: 22.566  AVERAGE MISS PENALTY: 0

LLC1 TOTAL     ACCESS: 514358  HIT: 132965  MISS: 381393  HIT %: 25.8507  MISS %: 74.1493  AVERAGE MISS PENALTY: 1653.24
LLC1 LOAD      ACCESS:   674  HIT:   213  MISS:   461  HIT %: 31.6024  MISS %: 68.3976  AVERAGE MISS PENALTY: 1771.31
LLC1 RFO       ACCESS: 148848  HIT:     0  MISS: 148848  HIT %:     0  MISS %:   100  AVERAGE MISS PENALTY: 2047.96
LLC1 PREFETCH  ACCESS: 215846  HIT: 17477  MISS: 198369  HIT %: 8.09698  MISS %: 91.903  AVERAGE MISS PENALTY: 1637.77
LLC1 WRITEBACK ACCESS: 148990  HIT: 115275  MISS: 33715  HIT %: 77.371  MISS %: 22.629  AVERAGE MISS PENALTY: 0

LLC2 TOTAL     ACCESS: 514380  HIT: 133095  MISS: 381285  HIT %: 25.8748  MISS %: 74.1252  AVERAGE MISS PENALTY: 1635.48
LLC2 LOAD      ACCESS:   566  HIT:   140  MISS:   426  HIT %: 24.735  MISS %: 75.265  AVERAGE MISS PENALTY: 1807.69
LLC2 RFO       ACCESS: 148848  HIT:     0  MISS: 148848  HIT %:     0  MISS %:   100  AVERAGE MISS PENALTY: 1970.75
LLC2 PREFETCH  ACCESS: 215968  HIT: 17614  MISS: 198354  HIT %: 8.15584  MISS %: 91.8442  AVERAGE MISS PENALTY: 1661.03
LLC2 WRITEBACK ACCESS: 148998  HIT: 115341  MISS: 33657  HIT %: 77.4111  MISS %: 22.5889  AVERAGE MISS PENALTY: 0

LLC3 TOTAL     ACCESS: 514108  HIT: 132859  MISS: 381249  HIT %: 25.8426  MISS %: 74.1574  AVERAGE MISS PENALTY: 1651.43
LLC3 LOAD      ACCESS:   494  HIT:    35  MISS:   459  HIT %: 7.08502  MISS %: 92.915  AVERAGE MISS PENALTY: 1815.39
LLC3 RFO       ACCESS: 148848  HIT:     0  MISS: 148848  HIT %:     0  MISS %:   100  AVERAGE MISS PENALTY: 1997.19
LLC3 PREFETCH  ACCESS: 215657  HIT: 17390  MISS: 198267  HIT %: 8.06373  MISS %: 91.9363  AVERAGE MISS PENALTY: 1671.97
LLC3 WRITEBACK ACCESS: 149109  HIT: 115434  MISS: 33675  HIT %: 77.4159  MISS %: 22.5841  AVERAGE MISS PENALTY: 0

LLC4 TOTAL     ACCESS: 514248  HIT: 132898  MISS: 381350  HIT %: 25.8432  MISS %: 74.1568  AVERAGE MISS PENALTY: 1643.11
LLC4 LOAD      ACCESS:   867  HIT:   156  MISS:   711  HIT %: 17.9931  MISS %: 82.0069  AVERAGE MISS PENALTY: 1739.52
LLC4 RFO       ACCESS: 148848  HIT:     0  MISS: 148848  HIT %:     0  MISS %:   100  AVERAGE MISS PENALTY: 2022.87
LLC4 PREFETCH  ACCESS: 215453  HIT: 17492  MISS: 197961  HIT %: 8.11871  MISS %: 91.8813  AVERAGE MISS PENALTY: 1638.01
LLC4 WRITEBACK ACCESS: 149080  HIT: 115250  MISS: 33830  HIT %: 77.3075  MISS %: 22.6925  AVERAGE MISS PENALTY: 0

LLC5 TOTAL     ACCESS: 514146  HIT: 132298  MISS: 381848  HIT %: 25.7316  MISS %: 74.2684  AVERAGE MISS PENALTY: 1629
LLC5 LOAD      ACCESS:   770  HIT:   155  MISS:   615  HIT %: 20.1299  MISS %: 79.8701  AVERAGE MISS PENALTY: 1752.4
LLC5 RFO       ACCESS: 148847  HIT:     0  MISS: 148847  HIT %:     0  MISS %:   100  AVERAGE MISS PENALTY: 1996.65
LLC5 PREFETCH  ACCESS: 215534  HIT: 17293  MISS: 198241  HIT %: 8.02333  MISS %: 91.9767  AVERAGE MISS PENALTY: 1633.15
LLC5 WRITEBACK ACCESS: 148995  HIT: 114850  MISS: 34145  HIT %: 77.0831  MISS %: 22.9169  AVERAGE MISS PENALTY: 0

LLC6 TOTAL     ACCESS: 514321  HIT: 133088  MISS: 381233  HIT %: 25.8764  MISS %: 74.1236  AVERAGE MISS PENALTY: 1467.65
LLC6 LOAD      ACCESS:  8088  HIT:   641  MISS:  7447  HIT %: 7.92532  MISS %: 92.0747  AVERAGE MISS PENALTY: 1798.58
LLC6 RFO       ACCESS: 148841  HIT:     0  MISS: 148841  HIT %:     0  MISS %:   100  AVERAGE MISS PENALTY: 1831.67
LLC6 PREFETCH  ACCESS: 208273  HIT: 17021  MISS: 191252  HIT %: 8.17245  MISS %: 91.8276  AVERAGE MISS PENALTY: 1430.01
LLC6 WRITEBACK ACCESS: 149119  HIT: 115426  MISS: 33693  HIT %: 77.4053  MISS %: 22.5947  AVERAGE MISS PENALTY: 0

LLC7 TOTAL     ACCESS: 514005  HIT: 132513  MISS: 381492  HIT %: 25.7805  MISS %: 74.2195  AVERAGE MISS PENALTY: 1444.55
LLC7 LOAD      ACCESS:  9207  HIT:   578  MISS:  8629  HIT %: 6.27783  MISS %: 93.7222  AVERAGE MISS PENALTY: 1785.35
LLC7 RFO       ACCESS: 148841  HIT:     0  MISS: 148841  HIT %:     0  MISS %:   100  AVERAGE MISS PENALTY: 1797.78
LLC7 PREFETCH  ACCESS: 206951  HIT: 16874  MISS: 190077  HIT %: 8.15362  MISS %: 91.8464  AVERAGE MISS PENALTY: 1410.46
LLC7 WRITEBACK ACCESS: 149006  HIT: 115061  MISS: 33945  HIT %: 77.219  MISS %: 22.781  AVERAGE MISS PENALTY: 0

Total Rob stall cycles : 	249946109
Total Load Rob Stall cycles : 	172768403
Average Rob Stall cycles : 	 16
Average Load Rob Stall cycles : 	 85

CPU 1 cumulative IPC: 0.628598 instructions: 200281396 cycles: 318615929
ITLB TOTAL     ACCESS: 24560156  HIT: 24560156  MISS:     0  HIT %:   100  MISS %:     0  AVERAGE MISS PENALTY: 0
ITLB LOAD      ACCESS: 24560156  HIT: 24560156  MISS:     0  HIT %:   100  MISS %:     0  AVERAGE MISS PENALTY: 0
ITLB RFO       ACCESS:     0  HIT:     0  MISS:     0  HIT %:     0  MISS %:     0  AVERAGE MISS PENALTY: 0
ITLB PREFETCH  ACCESS:     0  HIT:     0  MISS:     0  HIT %:     0  MISS %:     0  AVERAGE MISS PENALTY: 0
ITLB WRITEBACK ACCESS:     0  HIT:     0  MISS:     0  HIT %:     0  MISS %:     0  AVERAGE MISS PENALTY: 0

DTLB TOTAL     ACCESS: 47747544  HIT: 47435565  MISS: 311979  HIT %: 99.3466  MISS %: 0.653393  AVERAGE MISS PENALTY: 45.1833
DTLB LOAD      ACCESS: 30342975  HIT: 30142890  MISS: 200085  HIT %: 99.3406  MISS %: 0.659411  AVERAGE MISS PENALTY: 29.0656
DTLB RFO       ACCESS: 17404569  HIT: 17292675  MISS: 111894  HIT %: 99.3571  MISS %: 0.6429  AVERAGE MISS PENALTY: 74.0044
DTLB PREFETCH  ACCESS:     0  HIT:     0  MISS:     0  HIT %:     0  MISS %:     0  AVERAGE MISS PENALTY: 0
DTLB WRITEBACK ACCESS:     0  HIT:     0  MISS:     0  HIT %:     0  MISS %:     0  AVERAGE MISS PENALTY: 0

STLB TOTAL     ACCESS: 311979  HIT: 269325  MISS: 42654  HIT %: 86.3279  MISS %: 13.6721  AVERAGE MISS PENALTY: 100
STLB LOAD      ACCESS: 200085  HIT: 176058  MISS: 24027  HIT %: 87.9916  MISS %: 12.0084  AVERAGE MISS PENALTY: 100
STLB RFO       ACCESS: 111894  HIT: 93267  MISS: 18627  HIT %: 83.353  MISS %: 16.647  AVERAGE MISS PENALTY: 100
STLB PREFETCH  ACCESS:     0  HIT:     0  MISS:     0  HIT %:     0  MISS %:     0  AVERAGE MISS PENALTY: 0
STLB WRITEBACK ACCESS:     0  HIT:     0  MISS:     0  HIT %:     0  MISS %:     0  AVERAGE MISS PENALTY: 0

L1D TOTAL     ACCESS: 60023881  HIT: 56883319  MISS: 3140562  HIT %: 94.7678  MISS %: 5.23219  AVERAGE MISS PENALTY: 8.03405e+06
L1D LOAD      ACCESS: 32006373  HIT: 31771434  MISS: 234939  HIT %: 99.266  MISS %: 0.734038  AVERAGE MISS PENALTY: 1.07381e+08
L1D RFO       ACCESS: 24660275  HIT: 23466150  MISS: 1194125  HIT %: 95.1577  MISS %: 4.8423  AVERAGE MISS PENALTY: 2260.6
L1D PREFETCH  ACCESS: 3357233  HIT: 1645735  MISS: 1711498  HIT %: 49.0206  MISS %: 50.9794  AVERAGE MISS PENALTY: 404.793
L1D WRITEBACK ACCESS:     0  HIT:     0  MISS:     0  HIT %:     0  MISS %:     0  AVERAGE MISS PENALTY: 0

L1I TOTAL     ACCESS: 36156413  HIT: 36156413  MISS:     0  HIT %:   100  MISS %:     0  AVERAGE MISS PENALTY: 0
L1I LOAD      ACCESS: 36156413  HIT: 36156413  MISS:     0  HIT %:   100  MISS %:     0  AVERAGE MISS PENALTY: 0
L1I RFO       ACCESS:     0  HIT:     0  MISS:     0  HIT %:     0  MISS %:     0  AVERAGE MISS PENALTY: 0
L1I PREFETCH  ACCESS:     0  HIT:     0  MISS:     0  HIT %:     0  MISS %:     0  AVERAGE MISS PENALTY: 0
L1I WRITEBACK ACCESS:     0  HIT:     0  MISS:     0  HIT %:     0  MISS %:     0  AVERAGE MISS PENALTY: 0

L2C TOTAL     ACCESS: 6117989  HIT: 3192721  MISS: 2925268  HIT %: 52.1858  MISS %: 47.8142  AVERAGE MISS PENALTY: 8.85632e+06
L2C LOAD      ACCESS: 233772  HIT: 95052  MISS: 138720  HIT %: 40.6601  MISS %: 59.3399  AVERAGE MISS PENALTY: 1.86718e+08
L2C RFO       ACCESS: 1193361  HIT:   921  MISS: 1192440  HIT %: 0.077177  MISS %: 99.9228  AVERAGE MISS PENALTY: 2246.59
L2C PREFETCH  ACCESS: 3491074  HIT: 1897328  MISS: 1593746  HIT %: 54.348  MISS %: 45.652  AVERAGE MISS PENALTY: 1792.89
L2C WRITEBACK ACCESS: 1199782  HIT: 1199420  MISS:   362  HIT %: 99.9698  MISS %: 0.0301721  AVERAGE MISS PENALTY: 0


LLC0 TOTAL     ACCESS: 514652  HIT: 132610  MISS: 382042  HIT %: 25.7669  MISS %: 74.2331  AVERAGE MISS PENALTY: 1607.25
LLC0 LOAD      ACCESS: 27576  HIT:  2230  MISS: 25346  HIT %: 8.08674  MISS %: 91.9133  AVERAGE MISS PENALTY: 1525.92
LLC0 RFO       ACCESS: 149051  HIT:     0  MISS: 149051  HIT %:     0  MISS %:   100  AVERAGE MISS PENALTY: 1978.97
LLC0 PREFETCH  ACCESS: 188797  HIT: 15242  MISS: 173555  HIT %: 8.07322  MISS %: 91.9268  AVERAGE MISS PENALTY: 1615.6
LLC0 WRITEBACK ACCESS: 149228  HIT: 115138  MISS: 34090  HIT %: 77.1558  MISS %: 22.8442  AVERAGE MISS PENALTY: 0

LLC1 TOTAL     ACCESS: 514818  HIT: 132668  MISS: 382150  HIT %: 25.7699  MISS %: 74.2301  AVERAGE MISS PENALTY: 1652.33
LLC1 LOAD      ACCESS:   529  HIT:    98  MISS:   431  HIT %: 18.5255  MISS %: 81.4745  AVERAGE MISS PENALTY: 1791.24
LLC1 RFO       ACCESS: 149058  HIT:     0  MISS: 149058  HIT %:     0  MISS %:   100  AVERAGE MISS PENALTY: 2053.29
LLC1 PREFETCH  ACCESS: 216079  HIT: 17461  MISS: 198618  HIT %: 8.08084  MISS %: 91.9192  AVERAGE MISS PENALTY: 1634.32
LLC1 WRITEBACK ACCESS: 149152  HIT: 115109  MISS: 34043  HIT %: 77.1756  MISS %: 22.8244  AVERAGE MISS PENALTY: 0

LLC2 TOTAL     ACCESS: 514839  HIT: 132859  MISS: 381980  HIT %: 25.8059  MISS %: 74.1941  AVERAGE MISS PENALTY: 1633.66
LLC2 LOAD      ACCESS:   500  HIT:    61  MISS:   439  HIT %:  12.2  MISS %:  87.8  AVERAGE MISS PENALTY: 1772.46
LLC2 RFO       ACCESS: 149058  HIT:     0  MISS: 149058  HIT %:     0  MISS %:   100  AVERAGE MISS PENALTY: 1966.65
LLC2 PREFETCH  ACCESS: 216122  HIT: 17394  MISS: 198728  HIT %: 8.04823  MISS %: 91.9518  AVERAGE MISS PENALTY: 1661.08
LLC2 WRITEBACK ACCESS: 149159  HIT: 115404  MISS: 33755  HIT %: 77.3698  MISS %: 22.6302  AVERAGE MISS PENALTY: 0

LLC3 TOTAL     ACCESS: 514712  HIT: 132901  MISS: 381811  HIT %: 25.8205  MISS %: 74.1795  AVERAGE MISS PENALTY: 1649.6
LLC3 LOAD      ACCESS:   505  HIT:    35  MISS:   470  HIT %: 6.93069  MISS %: 93.0693  AVERAGE MISS PENALTY: 1932.87
LLC3 RFO       ACCESS: 149058  HIT:     0  MISS: 149058  HIT %:     0  MISS %:   100  AVERAGE MISS PENALTY: 1994.27
LLC3 PREFETCH  ACCESS: 215873  HIT: 17291  MISS: 198582  HIT %: 8.0098  MISS %: 91.9902  AVERAGE MISS PENALTY: 1670.16
LLC3 WRITEBACK ACCESS: 149276  HIT: 115575  MISS: 33701  HIT %: 77.4237  MISS %: 22.5763  AVERAGE MISS PENALTY: 0

[...]
LLC1 AVERAGE MISS LATENCY: 1651.97 cycles
LLC2 TOTAL     ACCESS: 514428  HIT: 133122  MISS: 381306  HIT %: 25.8777  MISS %: 74.1223  AVERAGE MISS PENALTY: 1628.34
LLC2 LOAD      ACCESS:   499  HIT:    72  MISS:   427  HIT %: 14.4289  MISS %: 85.5711  AVERAGE MISS PENALTY: 1754.49
LLC2 RFO       ACCESS: 148848  HIT:     0  MISS: 148848  HIT %:     0  MISS %:   100  AVERAGE MISS PENALTY: 1950.22
LLC2 PREFETCH  ACCESS: 215962  HIT: 17617  MISS: 198345  HIT %: 8.15745  MISS %: 91.8425  AVERAGE MISS PENALTY: 1663.06
LLC2 WRITEBACK ACCESS: 149119  HIT: 115433  MISS: 33686  HIT %: 77.41  MISS %: 22.59  AVERAGE MISS PENALTY: 0
LLC2 PREFETCH  REQUESTED:     0  ISSUED:     0  USEFUL:   173  USELESS: 1588760
 USEFUL LOAD PREFETCHES:        173 PREFETCH ISSUED TO LOWER LEVEL:  828257811  ACCURACY: 2.08872e-05
 TIMELY PREFETCHES:        173 LATE PREFETCHES: 0 DROPPED PREFETCHES: 0
LLC2 AVERAGE MISS LATENCY: 1628.34 cycles
LLC3 TOTAL     ACCESS: 514308  HIT: 133010  MISS: 381298  HIT %: 25.8619  MISS %: 74.1381  AVERAGE MISS PENALTY: 1645.59
LLC3 LOAD      ACCESS:   469  HIT:    39  MISS:   430  HIT %: 8.31557  MISS %: 91.6844  AVERAGE MISS PENALTY: 1783.11
LLC3 RFO       ACCESS: 148848  HIT:     0  MISS: 148848  HIT %:     0  MISS %:   100  AVERAGE MISS PENALTY: 1991.17
LLC3 PREFETCH  ACCESS: 215756  HIT: 17554  MISS: 198202  HIT %: 8.13604  MISS %: 91.864  AVERAGE MISS PENALTY: 1666.54
LLC3 WRITEBACK ACCESS: 149235  HIT: 115417  MISS: 33818  HIT %: 77.3391  MISS %: 22.6609  AVERAGE MISS PENALTY: 0
LLC3 PREFETCH  REQUESTED:     0  ISSUED:     0  USEFUL:   269  USELESS: 1587582
 USEFUL LOAD PREFETCHES:        269 PREFETCH ISSUED TO LOWER LEVEL:  840848933  ACCURACY: 3.19915e-05
 TIMELY PREFETCHES:        269 LATE PREFETCHES: 0 DROPPED PREFETCHES: 0
LLC3 AVERAGE MISS LATENCY: 1645.59 cycles
LLC4 TOTAL     ACCESS: 514580  HIT: 133287  MISS: 381293  HIT %: 25.9021  MISS %: 74.0979  AVERAGE MISS PENALTY: 1637.29
LLC4 LOAD      ACCESS:   940  HIT:   282  MISS:   658  HIT %:    30  MISS %:    70  AVERAGE MISS PENALTY: 1879.97
LLC4 RFO       ACCESS: 148848  HIT:     0  MISS: 148848  HIT %:     0  MISS %:   100  AVERAGE MISS PENALTY: 2005.4
LLC4 PREFETCH  ACCESS: 215592  HIT: 17484  MISS: 198108  HIT %: 8.10976  MISS %: 91.8902  AVERAGE MISS PENALTY: 1638.26
LLC4 WRITEBACK ACCESS: 149200  HIT: 115521  MISS: 33679  HIT %: 77.4269  MISS %: 22.5731  AVERAGE MISS PENALTY: 0
LLC4 PREFETCH  REQUESTED:     0  ISSUED:     0  USEFUL:   512  USELESS: 1585921
 USEFUL LOAD PREFETCHES:        512 PREFETCH ISSUED TO LOWER LEVEL: 1087992319  ACCURACY: 4.70592e-05
 TIMELY PREFETCHES:        512 LATE PREFETCHES: 0 DROPPED PREFETCHES: 0
LLC4 AVERAGE MISS LATENCY: 1637.29 cycles
LLC5 TOTAL     ACCESS: 514484  HIT: 133303  MISS: 381181  HIT %: 25.91  MISS %: 74.09  AVERAGE MISS PENALTY: 1630.26
LLC5 LOAD      ACCESS:   964  HIT:   310  MISS:   654  HIT %: 32.1577  MISS %: 67.8423  AVERAGE MISS PENALTY: 1626.01
LLC5 RFO       ACCESS: 148847  HIT:     0  MISS: 148847  HIT %:     0  MISS %:   100  AVERAGE MISS PENALTY: 1990.2
LLC5 PREFETCH  ACCESS: 215553  HIT: 17569  MISS: 197984  HIT %: 8.15066  MISS %: 91.8493  AVERAGE MISS PENALTY: 1637.12
LLC5 WRITEBACK ACCESS: 149120  HIT: 115424  MISS: 33696  HIT %: 77.4034  MISS %: 22.5966  AVERAGE MISS PENALTY: 0
LLC5 PREFETCH  REQUESTED:     0  ISSUED:     0  USEFUL:   566  USELESS: 1585974
 USEFUL LOAD PREFETCHES:        566 PREFETCH ISSUED TO LOWER LEVEL: 1136387809  ACCURACY: 4.98069e-05
 TIMELY PREFETCHES:        566 LATE PREFETCHES: 0 DROPPED PREFETCHES: 0
LLC5 AVERAGE MISS LATENCY: 1630.26 cycles
LLC6 TOTAL     ACCESS: 514811  HIT: 133689  MISS: 381122  HIT %: 25.9686  MISS %: 74.0314  AVERAGE MISS PENALTY: 1454.31
LLC6 LOAD      ACCESS:  8358  HIT:   740  MISS:  7618  HIT %: 8.85379  MISS %: 91.1462  AVERAGE MISS PENALTY: 1797.43
LLC6 RFO       ACCESS: 148841  HIT:     0  MISS: 148841  HIT %:     0  MISS %:   100  AVERAGE MISS PENALTY: 1800.99
LLC6 PREFETCH  ACCESS: 208210  HIT: 17230  MISS: 190980  HIT %: 8.2753  MISS %: 91.7247  AVERAGE MISS PENALTY: 1426.92
LLC6 WRITEBACK ACCESS: 149402  HIT: 115719  MISS: 33683  HIT %: 77.4548  MISS %: 22.5452  AVERAGE MISS PENALTY: 0
LLC6 PREFETCH  REQUESTED:     0  ISSUED:     0  USEFUL:  3463  USELESS: 1528501
 USEFUL LOAD PREFETCHES:       3463 PREFETCH ISSUED TO LOWER LEVEL: 1558673337  ACCURACY: 0.000222176
 TIMELY PREFETCHES:       3463 LATE PREFETCHES: 0 DROPPED PREFETCHES: 0
LLC6 AVERAGE MISS LATENCY: 1454.31 cycles
LLC7 TOTAL     ACCESS: 514226  HIT: 132965  MISS: 381261  HIT %: 25.8573  MISS %: 74.1427  AVERAGE MISS PENALTY: 1433.7
LLC7 LOAD      ACCESS:  9085  HIT:   537  MISS:  8548  HIT %: 5.91084  MISS %: 94.0892  AVERAGE MISS PENALTY: 1798.55
LLC7 RFO       ACCESS: 148841  HIT:     0  MISS: 148841  HIT %:     0  MISS %:   100  AVERAGE MISS PENALTY: 1765.97
LLC7 PREFETCH  ACCESS: 207161  HIT: 17094  MISS: 190067  HIT %: 8.25155  MISS %: 91.7484  AVERAGE MISS PENALTY: 1412.09
LLC7 WRITEBACK ACCESS: 149139  HIT: 115334  MISS: 33805  HIT %: 77.3332  MISS %: 22.6668  AVERAGE MISS PENALTY: 0
LLC7 PREFETCH  REQUESTED:     0  ISSUED:     0  USEFUL:  4018  USELESS: 1519353
 USEFUL LOAD PREFETCHES:       4018 PREFETCH ISSUED TO LOWER LEVEL: 1621167941  ACCURACY: 0.000247846
 TIMELY PREFETCHES:       4018 LATE PREFETCHES: 0 DROPPED PREFETCHES: 0
LLC7 AVERAGE MISS LATENCY: 1433.7 cycles
ROI Average ROB Stall Cycles:	15.9978
ROI Total ROB Stalls Cycles:	249346515
ROI TOTAL ROB counter      :	15586300
ROI Average Load ROB Stall Cycles:	85.2022
ROI Total Load ROB Stalls Cycle  :	172118337
ROI Total Load ROB stalls Counter:	2020116
Major fault: 0 Minor fault: 76639

CPU 7 cumulative IPC: 0.628237 instructions: 200000000 cycles: 318351401
ITLB TOTAL     ACCESS: 24520431  HIT: 24520431  MISS:     0  HIT %:   100  MISS %:     0  AVERAGE MISS PENALTY: 0
ITLB LOAD      ACCESS: 24520431  HIT: 24520431  MISS:     0  HIT %:   100  MISS %:     0  AVERAGE MISS PENALTY: 0
ITLB RFO       ACCESS:     0  HIT:     0  MISS:     0  HIT %:     0  MISS %:     0  AVERAGE MISS PENALTY: 0
ITLB PREFETCH  ACCESS:     0  HIT:     0  MISS:     0  HIT %:     0  MISS %:     0  AVERAGE MISS PENALTY: 0
ITLB WRITEBACK ACCESS:     0  HIT:     0  MISS:     0  HIT %:     0  MISS %:     0  AVERAGE MISS PENALTY: 0
ITLB PREFETCH  REQUESTED:     0  ISSUED:     0  USEFUL:     0  USELESS:     0
 USEFUL LOAD PREFETCHES:          0 PREFETCH ISSUED TO LOWER LEVEL:          0  ACCURACY: -nan
 TIMELY PREFETCHES:          0 LATE PREFETCHES: 0 DROPPED PREFETCHES: 0
ITLB AVERAGE MISS LATENCY: -nan cycles
DTLB TOTAL     ACCESS: 47678832  HIT: 47367774  MISS: 311058  HIT %: 99.3476  MISS %: 0.652403  AVERAGE MISS PENALTY: 45.2819
DTLB LOAD      ACCESS: 30298147  HIT: 30098748  MISS: 199399  HIT %: 99.3419  MISS %: 0.658123  AVERAGE MISS PENALTY: 29.1295
DTLB RFO       ACCESS: 17380685  HIT: 17269026  MISS: 111659  HIT %: 99.3576  MISS %: 0.642432  AVERAGE MISS PENALTY: 74.1266
DTLB PREFETCH  ACCESS:     0  HIT:     0  MISS:     0  HIT %:     0  MISS %:     0  AVERAGE MISS PENALTY: 0
DTLB WRITEBACK ACCESS:     0  HIT:     0  MISS:     0  HIT %:     0  MISS %:     0  AVERAGE MISS PENALTY: 0
DTLB PREFETCH  REQUESTED:     0  ISSUED:     0  USEFUL:     0  USELESS:     0
 USEFUL LOAD PREFETCHES:          0 PREFETCH ISSUED TO LOWER LEVEL:          0  ACCURACY: -nan
 TIMELY PREFETCHES:          0 LATE PREFETCHES: 0 DROPPED PREFETCHES: 0
DTLB AVERAGE MISS LATENCY: 45.2819 cycles
STLB TOTAL     ACCESS: 311058  HIT: 268455  MISS: 42603  HIT %: 86.3038  MISS %: 13.6962  AVERAGE MISS PENALTY: 100
STLB LOAD      ACCESS: 199399  HIT: 175402  MISS: 23997  HIT %: 87.9653  MISS %: 12.0347  AVERAGE MISS PENALTY: 100
STLB RFO       ACCESS: 111659  HIT: 93053  MISS: 18606  HIT %: 83.3368  MISS %: 16.6632  AVERAGE MISS PENALTY: 100
STLB PREFETCH  ACCESS:     0  HIT:     0  MISS:     0  HIT %:     0  MISS %:     0  AVERAGE MISS PENALTY: 0
STLB WRITEBACK ACCESS:     0  HIT:     0  MISS:     0  HIT %:     0  MISS %:     0  AVERAGE MISS PENALTY: 0
STLB PREFETCH  REQUESTED:     0  ISSUED:     0  USEFUL:     0  USELESS:     0
 USEFUL LOAD PREFETCHES:          0 PREFETCH ISSUED TO LOWER LEVEL:          0  ACCURACY: -nan
 TIMELY PREFETCHES:          0 LATE PREFETCHES: 0 DROPPED PREFETCHES: 0
STLB AVERAGE MISS LATENCY: 100 cycles
L1D TOTAL     ACCESS: 59946548  HIT: 56809996  MISS: 3136552  HIT %: 94.7678  MISS %: 5.23225  AVERAGE MISS PENALTY: 8.02805e+06
L1D LOAD      ACCESS: 31961572  HIT: 31728076  MISS: 233496  HIT %: 99.2694  MISS %: 0.730552  AVERAGE MISS PENALTY: 1.07826e+08
L1D RFO       ACCESS: 24628613  HIT: 23436052  MISS: 1192561  HIT %: 95.1578  MISS %: 4.84218  AVERAGE MISS PENALTY: 2252.49
L1D PREFETCH  ACCESS: 3356363  HIT: 1645868  MISS: 1710495  HIT %: 49.0372  MISS %: 50.9628  AVERAGE MISS PENALTY: 403.765
L1D WRITEBACK ACCESS:     0  HIT:     0  MISS:     0  HIT %:     0  MISS %:     0  AVERAGE MISS PENALTY: 0
L1D PREFETCH  REQUESTED: 4455349  ISSUED: 3632252  USEFUL: 1707400  USELESS:  3100
 USEFUL LOAD PREFETCHES:    1707400 PREFETCH ISSUED TO LOWER LEVEL:  217626912  ACCURACY: 0.784554
 TIMELY PREFETCHES:    1707400 LATE PREFETCHES: 110424 DROPPED PREFETCHES: 823097
L1D AVERAGE MISS LATENCY: 1139.53 cycles
L1I TOTAL     ACCESS: 36099307  HIT: 36099307  MISS:     0  HIT %:   100  MISS %:     0  AVERAGE MISS PENALTY: 0
L1I LOAD      ACCESS: 36099307  HIT: 36099307  MISS:     0  HIT %:   100  MISS %:     0  AVERAGE MISS PENALTY: 0
L1I RFO       ACCESS:     0  HIT:     0  MISS:     0  HIT %:     0  MISS %:     0  AVERAGE MISS PENALTY: 0
L1I PREFETCH  ACCESS:     0  HIT:     0  MISS:     0  HIT %:     0  MISS %:     0  AVERAGE MISS PENALTY: 0
L1I WRITEBACK ACCESS:     0  HIT:     0  MISS:     0  HIT %:     0  MISS %:     0  AVERAGE MISS PENALTY: 0
L1I PREFETCH  REQUESTED:     0  ISSUED:     0  USEFUL:     0  USELESS:     0
 USEFUL LOAD PREFETCHES:          0 PREFETCH ISSUED TO LOWER LEVEL:          0  ACCURACY: -nan
 TIMELY PREFETCHES:          0 LATE PREFETCHES: 0 DROPPED PREFETCHES: 0
L1I AVERAGE MISS LATENCY: -nan cycles
L2C TOTAL     ACCESS: 6111837  HIT: 3189478  MISS: 2922359  HIT %: 52.1853  MISS %: 47.8147  AVERAGE MISS PENALTY: 8.84314e+06
L2C LOAD      ACCESS: 232319  HIT: 94308  MISS: 138011  HIT %: 40.5942  MISS %: 59.4058  AVERAGE MISS PENALTY: 1.87212e+08
L2C RFO       ACCESS: 1191732  HIT:   979  MISS: 1190753  HIT %: 0.0821493  MISS %: 99.9179  AVERAGE MISS PENALTY: 2238.77
L2C PREFETCH  ACCESS: 3489596  HIT: 1896377  MISS: 1593219  HIT %: 54.3437  MISS %: 45.6563  AVERAGE MISS PENALTY: 1789.85
L2C WRITEBACK ACCESS: 1198190  HIT: 1197814  MISS:   376  HIT %: 99.9686  MISS %: 0.0313807  AVERAGE MISS PENALTY: 0
L2C PREFETCH  REQUESTED: 3033270  ISSUED: 3030772  USEFUL: 77916  USELESS: 1514858
 USEFUL LOAD PREFETCHES:      77916 PREFETCH ISSUED TO LOWER LEVEL:    3595764  ACCURACY: 2.16688
 TIMELY PREFETCHES:      77916 LATE PREFETCHES: 107051 DROPPED PREFETCHES: 2498
L2C AVERAGE MISS LATENCY: 1954.2 cycles
LLC0 TOTAL     ACCESS: 514105  HIT: 132895  MISS: 381210  HIT %: 25.8498  MISS %: 74.1502  AVERAGE MISS PENALTY: 1602.23
LLC0 LOAD      ACCESS: 27559  HIT:  2242  MISS: 25317  HIT %: 8.13527  MISS %: 91.8647  AVERAGE MISS PENALTY: 1539.26
LLC0 RFO       ACCESS: 148841  HIT:     0  MISS: 148841  HIT %:     0  MISS %:   100  AVERAGE MISS PENALTY: 1957.83
LLC0 PREFETCH  ACCESS: 188683  HIT: 15331  MISS: 173352  HIT %: 8.12527  MISS %: 91.8747  AVERAGE MISS PENALTY: 1617.58
LLC0 WRITEBACK ACCESS: 149022  HIT: 115322  MISS: 33700  HIT %: 77.3859  MISS %: 22.6141  AVERAGE MISS PENALTY: 0
LLC0 PREFETCH  REQUESTED:     0  ISSUED:     0  USEFUL:   206  USELESS: 1388356
 USEFUL LOAD PREFETCHES:        206 PREFETCH ISSUED TO LOWER LEVEL:  626487066  ACCURACY: 3.28818e-05
 TIMELY PREFETCHES:        206 LATE PREFETCHES: 0 DROPPED PREFETCHES: 0
LLC0 AVERAGE MISS LATENCY: 1602.23 cycles
Deadblocks : 201543 Deadblock percentage : 796.078

LLC1 TOTAL     ACCESS: 514303  HIT: 132817  MISS: 381486  HIT %: 25.8247  MISS %: 74.1753  AVERAGE MISS PENALTY: 1647.69
LLC1 LOAD      ACCESS:   530  HIT:   119  MISS:   411  HIT %: 22.4528  MISS %: 77.5472  AVERAGE MISS PENALTY: 1754.48
LLC1 RFO       ACCESS: 148848  HIT:     0  MISS: 148848  HIT %:     0  MISS %:   100  AVERAGE MISS PENALTY: 2038.83
LLC1 PREFETCH  ACCESS: 215993  HIT: 17518  MISS: 198475  HIT %: 8.11045  MISS %: 91.8896  AVERAGE MISS PENALTY: 1634.32
LLC1 WRITEBACK ACCESS: 148932  HIT: 115180  MISS: 33752  HIT %: 77.3373  MISS %: 22.6627  AVERAGE MISS PENALTY: 0
LLC1 PREFETCH  REQUESTED:     0  ISSUED:     0  USEFUL:   215  USELESS: 1588890
 USEFUL LOAD PREFETCHES:        215 PREFETCH ISSUED TO LOWER LEVEL:  711498145  ACCURACY: 3.02179e-05
 TIMELY PREFETCHES:        215 LATE PREFETCHES: 0 DROPPED PREFETCHES: 0
LLC1 AVERAGE MISS LATENCY: 1647.69 cycles
LLC2 TOTAL     ACCESS: 514315  HIT: 133300  MISS: 381015  HIT %: 25.918  MISS %: 74.082  AVERAGE MISS PENALTY: 1629.08
LLC2 LOAD      ACCESS:   460  HIT:    57  MISS:   403  HIT %: 12.3913  MISS %: 87.6087  AVERAGE MISS PENALTY: 1655.7
LLC2 RFO       ACCESS: 148848  HIT:     0  MISS: 148848  HIT %:     0  MISS %:   100  AVERAGE MISS PENALTY: 1962.27
LLC2 PREFETCH  ACCESS: 216068  HIT: 17818  MISS: 198250  HIT %: 8.24648  MISS %: 91.7535  AVERAGE MISS PENALTY: 1654.25
LLC2 WRITEBACK ACCESS: 148939  HIT: 115425  MISS: 33514  HIT %: 77.4982  MISS %: 22.5018  AVERAGE MISS PENALTY: 0
LLC2 PREFETCH  REQUESTED:     0  ISSUED:     0  USEFUL:   173  USELESS: 1588760
 USEFUL LOAD PREFETCHES:        173 PREFETCH ISSUED TO LOWER LEVEL:  828257811  ACCURACY: 2.08872e-05
 TIMELY PREFETCHES:        173 LATE PREFETCHES: 0 DROPPED PREFETCHES: 0
LLC2 AVERAGE MISS LATENCY: 1629.08 cycles
LLC3 TOTAL     ACCESS: 514165  HIT: 132719  MISS: 381446  HIT %: 25.8125  MISS %: 74.1875  AVERAGE MISS PENALTY: 1648.38
LLC3 LOAD      ACCESS:   486  HIT:    28  MISS:   458  HIT %: 5.76132  MISS %: 94.2387  AVERAGE MISS PENALTY: 1899.28
LLC3 RFO       ACCESS: 148846  HIT:     0  MISS: 148846  HIT %:     0  MISS %:   100  AVERAGE MISS PENALTY: 1991.3
LLC3 PREFETCH  ACCESS: 215775  HIT: 17458  MISS: 198317  HIT %: 8.09084  MISS %: 91.9092  AVERAGE MISS PENALTY: 1671.57
LLC3 WRITEBACK ACCESS: 149058  HIT: 115233  MISS: 33825  HIT %: 77.3075  MISS %: 22.6925  AVERAGE MISS PENALTY: 0
LLC3 PREFETCH  REQUESTED:     0  ISSUED:     0  USEFUL:   269  USELESS: 1587582
 USEFUL LOAD PREFETCHES:        269 PREFETCH ISSUED TO LOWER LEVEL:  840848933  ACCURACY: 3.19915e-05
 TIMELY PREFETCHES:        269 LATE PREFETCHES: 0 DROPPED PREFETCHES: 0
LLC3 AVERAGE MISS LATENCY: 1648.38 cycles
LLC4 TOTAL     ACCESS: 514318  HIT: 132967  MISS: 381351  HIT %: 25.8531  MISS %: 74.1469  AVERAGE MISS PENALTY: 1637.85
LLC4 LOAD      ACCESS:   805  HIT:   155  MISS:   650  HIT %: 19.2547  MISS %: 80.7453  AVERAGE MISS PENALTY: 1834.49
LLC4 RFO       ACCESS: 148841  HIT:     0  MISS: 148841  HIT %:     0  MISS %:   100  AVERAGE MISS PENALTY: 2009.93
LLC4 PREFETCH  ACCESS: 215644  HIT: 17504  MISS: 198140  HIT %: 8.11708  MISS %: 91.8829  AVERAGE MISS PENALTY: 1636.44
LLC4 WRITEBACK ACCESS: 149028  HIT: 115308  MISS: 33720  HIT %: 77.3734  MISS %: 22.6266  AVERAGE MISS PENALTY: 0
LLC4 PREFETCH  REQUESTED:     0  ISSUED:     0  USEFUL:   512  USELESS: 1585921
 USEFUL LOAD PREFETCHES:        512 PREFETCH ISSUED TO LOWER LEVEL: 1087992319  ACCURACY: 4.70592e-05
 TIMELY PREFETCHES:        512 LATE PREFETCHES: 0 DROPPED PREFETCHES: 0
LLC4 AVERAGE MISS LATENCY: 1637.85 cycles
LLC5 TOTAL     ACCESS: 514222  HIT: 132982  MISS: 381240  HIT %: 25.8608  MISS %: 74.1392  AVERAGE MISS PENALTY: 1625.03
LLC5 LOAD      ACCESS:   784  HIT:   153  MISS:   631  HIT %: 19.5153  MISS %: 80.4847  AVERAGE MISS PENALTY: 1798.68
LLC5 RFO       ACCESS: 148847  HIT:     0  MISS: 148847  HIT %:     0  MISS %:   100  AVERAGE MISS PENALTY: 1979.3
LLC5 PREFETCH  ACCESS: 215649  HIT: 17604  MISS: 198045  HIT %: 8.16327  MISS %: 91.8367  AVERAGE MISS PENALTY: 1634.87
LLC5 WRITEBACK ACCESS: 148942  HIT: 115225  MISS: 33717  HIT %: 77.3623  MISS %: 22.6377  AVERAGE MISS PENALTY: 0
LLC5 PREFETCH  REQUESTED:     0  ISSUED:     0  USEFUL:   566  USELESS: 1585974
 USEFUL LOAD PREFETCHES:        566 PREFETCH ISSUED TO LOWER LEVEL: 1136387809  ACCURACY: 4.98069e-05
 TIMELY PREFETCHES:        566 LATE PREFETCHES: 0 DROPPED PREFETCHES: 0
LLC5 AVERAGE MISS LATENCY: 1625.03 cycles
LLC6 TOTAL     ACCESS: 514423  HIT: 133212  MISS: 381211  HIT %: 25.8954  MISS %: 74.1046  AVERAGE MISS PENALTY: 1461.56
LLC6 LOAD      ACCESS:  8175  HIT:   639  MISS:  7536  HIT %: 7.81651  MISS %: 92.1835  AVERAGE MISS PENALTY: 1754.79
LLC6 RFO       ACCESS: 148841  HIT:     0  MISS: 148841  HIT %:     0  MISS %:   100  AVERAGE MISS PENALTY: 1820.41
LLC6 PREFETCH  ACCESS: 208324  HIT: 17116  MISS: 191208  HIT %: 8.21605  MISS %: 91.784  AVERAGE MISS PENALTY: 1427.68
LLC6 WRITEBACK ACCESS: 149083  HIT: 115457  MISS: 33626  HIT %: 77.4448  MISS %: 22.5552  AVERAGE MISS PENALTY: 0
LLC6 PREFETCH  REQUESTED:     0  ISSUED:     0  USEFUL:  3463  USELESS: 1528501
 USEFUL LOAD PREFETCHES:       3463 PREFETCH ISSUED TO LOWER LEVEL: 1558673337  ACCURACY: 0.000222176
 TIMELY PREFETCHES:       3463 LATE PREFETCHES: 0 DROPPED PREFETCHES: 0
LLC6 AVERAGE MISS LATENCY: 1461.56 cycles
LLC7 TOTAL     ACCESS: 514101  HIT: 132914  MISS: 381187  HIT %: 25.8537  MISS %: 74.1463  AVERAGE MISS PENALTY: 1437.75
LLC7 LOAD      ACCESS:  8899  HIT:   540  MISS:  8359  HIT %: 6.0681  MISS %: 93.9319  AVERAGE MISS PENALTY: 1787.38
LLC7 RFO       ACCESS: 148841  HIT:     0  MISS: 148841  HIT %:     0  MISS %:   100  AVERAGE MISS PENALTY: 1775.28
LLC7 PREFETCH  ACCESS: 207396  HIT: 17058  MISS: 190338  HIT %: 8.22485  MISS %: 91.7752  AVERAGE MISS PENALTY: 1412.62
LLC7 WRITEBACK ACCESS: 148965  HIT: 115316  MISS: 33649  HIT %: 77.4115  MISS %: 22.5885  AVERAGE MISS PENALTY: 0
LLC7 PREFETCH  REQUESTED:     0  ISSUED:     0  USEFUL:  4018  USELESS: 1519353
 USEFUL LOAD PREFETCHES:       4018 PREFETCH ISSUED TO LOWER LEVEL: 1621167941  ACCURACY: 0.000247846
 TIMELY PREFETCHES:       4018 LATE PREFETCHES: 0 DROPPED PREFETCHES: 0
LLC7 AVERAGE MISS LATENCY: 1437.75 cycles
ROI Average ROB Stall Cycles:	16.0249
ROI Total ROB Stalls Cycles:	249888737
ROI TOTAL ROB counter      :	15593783
ROI Average Load ROB Stall Cycles:	85.4862
ROI Total Load ROB Stalls Cycle  :	172770855
ROI Total Load ROB stalls Counter:	2021039
Major fault: 0 Minor fault: 76582








Interconnect Stats 
LINK 0 BW : 0LINK 1 BW : 0LINK 2 BW : 0LINK 3 BW : 0LINK 4 BW : 0LINK 5 BW : 0LINK 6 BW : 0LINK 7 BW : 0
DRAM Statistics
 CHANNEL 0
 RQ ROW_BUFFER_HIT: 6324185  ROW_BUFFER_MISS: 4814043
 DBUS_CONGESTED: 19131276
 WQ ROW_BUFFER_HIT: 244611  ROW_BUFFER_MISS: 4531871  FULL:     0

 CHANNEL 1
 RQ ROW_BUFFER_HIT: 6290977  ROW_BUFFER_MISS: 4847906
 DBUS_CONGESTED: 19131276
 WQ ROW_BUFFER_HIT: 239022  ROW_BUFFER_MISS: 4537036  FULL:     0

 AVG_CONGESTED_CYCLE: 6
DRAM PAGES: 2097152
Allocated PAGES: 612879
L2C destructor called
L1D destructor called
L1I destructor called
STLB destructor called
DTLB destructor called
ITLB destructor called
L2C destructor called
L1D destructor called
L1I destructor called
STLB destructor called
DTLB destructor called
ITLB destructor called
L2C destructor called
L1D destructor called
L1I destructor called
STLB destructor called
DTLB destructor called
ITLB destructor called
L2C destructor called
L1D destructor called
L1I destructor called
STLB destructor called
DTLB destructor called
ITLB destructor called
L2C destructor called
L1D destructor called
L1I destructor called
STLB destructor called
DTLB destructor called
ITLB destructor called
L2C destructor called
L1D destructor called
L1I destructor called
STLB destructor called
DTLB destructor called
ITLB destructor called
L2C destructor called
L1D destructor called
L1I destructor called
STLB destructor called
DTLB destructor called
ITLB destructor called
L2C destructor called
L1D destructor called
L1I destructor called
STLB destructor called
DTLB destructor called
ITLB destructor called
