
*** ChampSim Multicore Out-of-Order Simulator ***

Warmup Instructions: 200000000
Simulation Instructions: 200000000
Number of CPUs: 8
threads:1

L1I Configuration:
L1I_SET:64
L1I_WAY:8
L1I_RQ_SIZE:64
L1I_WQ_SIZE:64
L1I_PQ_SIZE:8
L1I_MSHR_SIZE:8

L1D Configuration:
L1D_SET:64
L1D_WAY:12
L1D_RQ_SIZE:64
L1D_WQ_SIZE:64
L1D_PQ_SIZE:8
L1D_MSHR_SIZE:16

L2C Configuration:
L2C_SET:1024
L2C_WAY:8
L2C_RQ_SIZE:32
L2C_WQ_SIZE:32
L2C_PQ_SIZE:16
L2C_MSHR_SIZE:32

LLC Configuration:
LLC_SET:2048
LLC_WAY:16
LLC SLICES:8
LLC_RQ_SIZE:64
LLC_WQ_SIZE:64
LLC_PQ_SIZE:32
LLC_MSHR_SIZE:64

Interconnect OFF
Attacker deprioritize is: OFF
Off-chip DRAM Size: 8192 MB Channels: 2 Width: 64-bit Data Rate: 3200 MT/s
PAGE SIZE in KB: 4.000000 
PAGE SIZE in MB: 0.003906 
PAGE offset in bits: 12 
CEASER-S_LLC:0
MIRAGE : 1
CEASER_LATENCY:3
REMAP : OFF
Partitions : 1
Multi-Step : OFF
BFS : OFF

CPU 0 runs /home/anubhav/spec_2017/605.mcf_s-1536B.champsimtrace.xz
CPU 1 runs /home/anubhav/spec_2017/605.mcf_s-1536B.champsimtrace.xz
CPU 2 runs /home/anubhav/spec_2017/605.mcf_s-1536B.champsimtrace.xz
CPU 3 runs /home/anubhav/spec_2017/605.mcf_s-1536B.champsimtrace.xz
CPU 4 runs /home/anubhav/spec_2017/605.mcf_s-1536B.champsimtrace.xz
CPU 5 runs /home/anubhav/spec_2017/605.mcf_s-1536B.champsimtrace.xz
CPU 6 runs /home/anubhav/spec_2017/605.mcf_s-1536B.champsimtrace.xz
CPU 7 runs /home/anubhav/spec_2017/605.mcf_s-1536B.champsimtrace.xz
CPU 0 Bimodal branch predictor
Initialize Hawkeye state
Initialize Hawkeye state
Initialize Hawkeye state
Initialize Hawkeye state
Initialize Hawkeye state
Initialize Hawkeye state
Initialize Hawkeye state
Initialize Hawkeye state
CPU 1 Bimodal branch predictor
Initialize Hawkeye state
Initialize Hawkeye state
Initialize Hawkeye state
Initialize Hawkeye state
Initialize Hawkeye state
Initialize Hawkeye state
Initialize Hawkeye state
Initialize Hawkeye state
CPU 2 Bimodal branch predictor
Initialize Hawkeye state
Initialize Hawkeye state
Initialize Hawkeye state
Initialize Hawkeye state
Initialize Hawkeye state
Initialize Hawkeye state
Initialize Hawkeye state
Initialize Hawkeye state
CPU 3 Bimodal branch predictor
Initialize Hawkeye state
Initialize Hawkeye state
Initialize Hawkeye state
Initialize Hawkeye state
Initialize Hawkeye state
Initialize Hawkeye state
Initialize Hawkeye state
Initialize Hawkeye state
CPU 4 Bimodal branch predictor
Initialize Hawkeye state
Initialize Hawkeye state
Initialize Hawkeye state
Initialize Hawkeye state
Initialize Hawkeye state
Initialize Hawkeye state
Initialize Hawkeye state
Initialize Hawkeye state
CPU 5 Bimodal branch predictor
Initialize Hawkeye state
Initialize Hawkeye state
Initialize Hawkeye state
Initialize Hawkeye state
Initialize Hawkeye state
Initialize Hawkeye state
Initialize Hawkeye state
Initialize Hawkeye state
CPU 6 Bimodal branch predictor
Initialize Hawkeye state
Initialize Hawkeye state
Initialize Hawkeye state
Initialize Hawkeye state
Initialize Hawkeye state
Initialize Hawkeye state
Initialize Hawkeye state
Initialize Hawkeye state
CPU 7 Bimodal branch predictor
Initialize Hawkeye state
Initialize Hawkeye state
Initialize Hawkeye state
Initialize Hawkeye state
Initialize Hawkeye state
Initialize Hawkeye state
Initialize Hawkeye state
Initialize Hawkeye state
Heartbeat CPU 0 instructions: 10000002 cycles: 3442291 heartbeat IPC: 2.90504 cumulative IPC: 2.90504 (Simulation time: 0 hr 47 min 53 sec) 
 Total Blocks : 262144 Invalid Blocks : 0
Heartbeat CPU 1 instructions: 10000002 cycles: 3442624 heartbeat IPC: 2.90476 cumulative IPC: 2.90476 (Simulation time: 0 hr 47 min 53 sec) 
 Total Blocks : 262144 Invalid Blocks : 0
Heartbeat CPU 3 instructions: 10000002 cycles: 3442631 heartbeat IPC: 2.90476 cumulative IPC: 2.90476 (Simulation time: 0 hr 47 min 53 sec) 
 Total Blocks : 262144 Invalid Blocks : 0
Heartbeat CPU 2 instructions: 10000002 cycles: 3443012 heartbeat IPC: 2.90443 cumulative IPC: 2.90443 (Simulation time: 0 hr 47 min 53 sec) 
 Total Blocks : 262144 Invalid Blocks : 0
Heartbeat CPU 4 instructions: 10000002 cycles: 3443079 heartbeat IPC: 2.90438 cumulative IPC: 2.90438 (Simulation time: 0 hr 47 min 53 sec) 
 Total Blocks : 262144 Invalid Blocks : 0
Heartbeat CPU 6 instructions: 10000002 cycles: 3443425 heartbeat IPC: 2.90409 cumulative IPC: 2.90409 (Simulation time: 0 hr 47 min 54 sec) 
 Total Blocks : 262144 Invalid Blocks : 0
Heartbeat CPU 5 instructions: 10000002 cycles: 3443488 heartbeat IPC: 2.90403 cumulative IPC: 2.90403 (Simulation time: 0 hr 47 min 54 sec) 
 Total Blocks : 262144 Invalid Blocks : 0
Heartbeat CPU 7 instructions: 10000002 cycles: 3443754 heartbeat IPC: 2.90381 cumulative IPC: 2.90381 (Simulation time: 0 hr 47 min 54 sec) 
 Total Blocks : 262144 Invalid Blocks : 0
Heartbeat CPU 0 instructions: 20000001 cycles: 6879039 heartbeat IPC: 2.90973 cumulative IPC: 2.90738 (Simulation time: 1 hr 48 min 57 sec) 
 Total Blocks : 262144 Invalid Blocks : 0
Heartbeat CPU 3 instructions: 20000001 cycles: 6880051 heartbeat IPC: 2.90916 cumulative IPC: 2.90696 (Simulation time: 1 hr 48 min 58 sec) 
 Total Blocks : 262144 Invalid Blocks : 0
Heartbeat CPU 1 instructions: 20000001 cycles: 6880122 heartbeat IPC: 2.90909 cumulative IPC: 2.90693 (Simulation time: 1 hr 48 min 58 sec) 
 Total Blocks : 262144 Invalid Blocks : 0
Heartbeat CPU 2 instructions: 20000001 cycles: 6880125 heartbeat IPC: 2.90942 cumulative IPC: 2.90692 (Simulation time: 1 hr 48 min 58 sec) 
 Total Blocks : 262144 Invalid Blocks : 0
Heartbeat CPU 4 instructions: 20000001 cycles: 6880343 heartbeat IPC: 2.90929 cumulative IPC: 2.90683 (Simulation time: 1 hr 48 min 58 sec) 
 Total Blocks : 262144 Invalid Blocks : 0
Heartbeat CPU 5 instructions: 20000001 cycles: 6881101 heartbeat IPC: 2.90899 cumulative IPC: 2.90651 (Simulation time: 1 hr 48 min 59 sec) 
 Total Blocks : 262144 Invalid Blocks : 0
Heartbeat CPU 6 instructions: 20000001 cycles: 6881197 heartbeat IPC: 2.90886 cumulative IPC: 2.90647 (Simulation time: 1 hr 48 min 59 sec) 
 Total Blocks : 262144 Invalid Blocks : 0
Heartbeat CPU 7 instructions: 20000001 cycles: 6881935 heartbeat IPC: 2.90851 cumulative IPC: 2.90616 (Simulation time: 1 hr 49 min 0 sec) 
 Total Blocks : 262144 Invalid Blocks : 0
Heartbeat CPU 0 instructions: 30000003 cycles: 10313109 heartbeat IPC: 2.912 cumulative IPC: 2.90892 (Simulation time: 3 hr 7 min 48 sec) 
 Total Blocks : 262144 Invalid Blocks : 0
Heartbeat CPU 3 instructions: 30000003 cycles: 10314942 heartbeat IPC: 2.9113 cumulative IPC: 2.9084 (Simulation time: 3 hr 7 min 52 sec) 
 Total Blocks : 262144 Invalid Blocks : 0
Heartbeat CPU 2 instructions: 30000003 cycles: 10315063 heartbeat IPC: 2.91126 cumulative IPC: 2.90837 (Simulation time: 3 hr 7 min 52 sec) 
 Total Blocks : 262144 Invalid Blocks : 0
Heartbeat CPU 1 instructions: 30000003 cycles: 10315150 heartbeat IPC: 2.91119 cumulative IPC: 2.90834 (Simulation time: 3 hr 7 min 52 sec) 
 Total Blocks : 262144 Invalid Blocks : 0
Heartbeat CPU 4 instructions: 30000003 cycles: 10316178 heartbeat IPC: 2.9105 cumulative IPC: 2.90805 (Simulation time: 3 hr 7 min 53 sec) 
 Total Blocks : 262144 Invalid Blocks : 0
Heartbeat CPU 5 instructions: 30000003 cycles: 10316792 heartbeat IPC: 2.91062 cumulative IPC: 2.90788 (Simulation time: 3 hr 7 min 54 sec) 
 Total Blocks : 262144 Invalid Blocks : 0
Heartbeat CPU 6 instructions: 30000003 cycles: 10317079 heartbeat IPC: 2.91046 cumulative IPC: 2.9078 (Simulation time: 3 hr 7 min 55 sec) 
 Total Blocks : 262144 Invalid Blocks : 0
Heartbeat CPU 7 instructions: 30000003 cycles: 10318166 heartbeat IPC: 2.91017 cumulative IPC: 2.90749 (Simulation time: 3 hr 7 min 56 sec) 
 Total Blocks : 262144 Invalid Blocks : 0
Heartbeat CPU 0 instructions: 40000000 cycles: 13754262 heartbeat IPC: 2.906 cumulative IPC: 2.90819 (Simulation time: 4 hr 48 min 18 sec) 
 Total Blocks : 262144 Invalid Blocks : 0
Heartbeat CPU 3 instructions: 40000000 cycles: 13756688 heartbeat IPC: 2.9055 cumulative IPC: 2.90768 (Simulation time: 4 hr 48 min 23 sec) 
 Total Blocks : 262144 Invalid Blocks : 0
Heartbeat CPU 2 instructions: 40000000 cycles: 13756781 heartbeat IPC: 2.90552 cumulative IPC: 2.90766 (Simulation time: 4 hr 48 min 23 sec) 
 Total Blocks : 262144 Invalid Blocks : 0
Heartbeat CPU 1 instructions: 40000000 cycles: 13757458 heartbeat IPC: 2.90503 cumulative IPC: 2.90751 (Simulation time: 4 hr 48 min 24 sec) 
 Total Blocks : 262144 Invalid Blocks : 0
Heartbeat CPU 4 instructions: 40000000 cycles: 13758998 heartbeat IPC: 2.90459 cumulative IPC: 2.90719 (Simulation time: 4 hr 48 min 28 sec) 
 Total Blocks : 262144 Invalid Blocks : 0
Heartbeat CPU 5 instructions: 40000000 cycles: 13759923 heartbeat IPC: 2.90433 cumulative IPC: 2.90699 (Simulation time: 4 hr 48 min 29 sec) 
 Total Blocks : 262144 Invalid Blocks : 0
Heartbeat CPU 6 instructions: 40000000 cycles: 13760624 heartbeat IPC: 2.90398 cumulative IPC: 2.90684 (Simulation time: 4 hr 48 min 30 sec) 
 Total Blocks : 262144 Invalid Blocks : 0
Heartbeat CPU 7 instructions: 40000000 cycles: 13760837 heartbeat IPC: 2.90472 cumulative IPC: 2.9068 (Simulation time: 4 hr 48 min 31 sec) 
 Total Blocks : 262144 Invalid Blocks : 0
Heartbeat CPU 0 instructions: 50000001 cycles: 17196934 heartbeat IPC: 2.90472 cumulative IPC: 2.9075 (Simulation time: 6 hr 44 min 59 sec) 
 Total Blocks : 262144 Invalid Blocks : 0
Heartbeat CPU 2 instructions: 50000001 cycles: 17199497 heartbeat IPC: 2.90468 cumulative IPC: 2.90706 (Simulation time: 6 hr 45 min 4 sec) 
 Total Blocks : 262144 Invalid Blocks : 0
Heartbeat CPU 3 instructions: 50000001 cycles: 17199778 heartbeat IPC: 2.90437 cumulative IPC: 2.90701 (Simulation time: 6 hr 45 min 5 sec) 
 Total Blocks : 262144 Invalid Blocks : 0
Heartbeat CPU 1 instructions: 50000001 cycles: 17200900 heartbeat IPC: 2.90407 cumulative IPC: 2.90682 (Simulation time: 6 hr 45 min 7 sec) 
 Total Blocks : 262144 Invalid Blocks : 0
Heartbeat CPU 4 instructions: 50000001 cycles: 17202275 heartbeat IPC: 2.90421 cumulative IPC: 2.90659 (Simulation time: 6 hr 45 min 10 sec) 
 Total Blocks : 262144 Invalid Blocks : 0
Heartbeat CPU 5 instructions: 50000001 cycles: 17203911 heartbeat IPC: 2.90361 cumulative IPC: 2.90632 (Simulation time: 6 hr 45 min 12 sec) 
 Total Blocks : 262144 Invalid Blocks : 0
Heartbeat CPU 6 instructions: 50000001 cycles: 17204906 heartbeat IPC: 2.90336 cumulative IPC: 2.90615 (Simulation time: 6 hr 45 min 15 sec) 
 Total Blocks : 262144 Invalid Blocks : 0
Heartbeat CPU 7 instructions: 50000001 cycles: 17205474 heartbeat IPC: 2.90306 cumulative IPC: 2.90605 (Simulation time: 6 hr 45 min 16 sec) 
 Total Blocks : 262144 Invalid Blocks : 0
Heartbeat CPU 0 instructions: 60000003 cycles: 20631850 heartbeat IPC: 2.91128 cumulative IPC: 2.90813 (Simulation time: 8 hr 59 min 11 sec) 
 Total Blocks : 262144 Invalid Blocks : 0
Heartbeat CPU 2 instructions: 60000000 cycles: 20635442 heartbeat IPC: 2.91041 cumulative IPC: 2.90762 (Simulation time: 8 hr 59 min 20 sec) 
 Total Blocks : 262144 Invalid Blocks : 0
Heartbeat CPU 1 instructions: 60000003 cycles: 20635910 heartbeat IPC: 2.9112 cumulative IPC: 2.90755 (Simulation time: 8 hr 59 min 22 sec) 
 Total Blocks : 262144 Invalid Blocks : 0
Heartbeat CPU 3 instructions: 60000003 cycles: 20635931 heartbeat IPC: 2.91023 cumulative IPC: 2.90755 (Simulation time: 8 hr 59 min 22 sec) 
 Total Blocks : 262144 Invalid Blocks : 0
Heartbeat CPU 4 instructions: 60000003 cycles: 20638537 heartbeat IPC: 2.91014 cumulative IPC: 2.90718 (Simulation time: 8 hr 59 min 29 sec) 
 Total Blocks : 262144 Invalid Blocks : 0
Heartbeat CPU 5 instructions: 60000003 cycles: 20640547 heartbeat IPC: 2.90982 cumulative IPC: 2.9069 (Simulation time: 8 hr 59 min 33 sec) 
 Total Blocks : 262144 Invalid Blocks : 0
Heartbeat CPU 6 instructions: 60000003 cycles: 20641524 heartbeat IPC: 2.90984 cumulative IPC: 2.90676 (Simulation time: 8 hr 59 min 35 sec) 
 Total Blocks : 262144 Invalid Blocks : 0
Heartbeat CPU 7 instructions: 60000003 cycles: 20642898 heartbeat IPC: 2.90916 cumulative IPC: 2.90657 (Simulation time: 8 hr 59 min 39 sec) 
 Total Blocks : 262144 Invalid Blocks : 0
Heartbeat CPU 0 instructions: 70000000 cycles: 24065842 heartbeat IPC: 2.91206 cumulative IPC: 2.90869 (Simulation time: 11 hr 25 min 22 sec) 
 Total Blocks : 262144 Invalid Blocks : 0
Heartbeat CPU 2 instructions: 70000000 cycles: 24071167 heartbeat IPC: 2.91059 cumulative IPC: 2.90804 (Simulation time: 11 hr 25 min 35 sec) 
 Total Blocks : 262144 Invalid Blocks : 0
Heartbeat CPU 1 instructions: 70000000 cycles: 24071263 heartbeat IPC: 2.91091 cumulative IPC: 2.90803 (Simulation time: 11 hr 25 min 35 sec) 
 Total Blocks : 262144 Invalid Blocks : 0
Heartbeat CPU 3 instructions: 70000000 cycles: 24071437 heartbeat IPC: 2.91078 cumulative IPC: 2.90801 (Simulation time: 11 hr 25 min 36 sec) 
 Total Blocks : 262144 Invalid Blocks : 0
Heartbeat CPU 4 instructions: 70000000 cycles: 24073662 heartbeat IPC: 2.9111 cumulative IPC: 2.90774 (Simulation time: 11 hr 25 min 42 sec) 
 Total Blocks : 262144 Invalid Blocks : 0
Heartbeat CPU 5 instructions: 70000000 cycles: 24076246 heartbeat IPC: 2.91061 cumulative IPC: 2.90743 (Simulation time: 11 hr 25 min 47 sec) 
 Total Blocks : 262144 Invalid Blocks : 0
Heartbeat CPU 6 instructions: 70000000 cycles: 24077940 heartbeat IPC: 2.91001 cumulative IPC: 2.90723 (Simulation time: 11 hr 25 min 50 sec) 
 Total Blocks : 262144 Invalid Blocks : 0
Heartbeat CPU 7 instructions: 70000000 cycles: 24079636 heartbeat IPC: 2.90973 cumulative IPC: 2.90702 (Simulation time: 11 hr 25 min 55 sec) 
 Total Blocks : 262144 Invalid Blocks : 0
Heartbeat CPU 0 instructions: 80000000 cycles: 27496776 heartbeat IPC: 2.91466 cumulative IPC: 2.90943 (Simulation time: 13 hr 58 min 33 sec) 
 Total Blocks : 262144 Invalid Blocks : 0
Heartbeat CPU 2 instructions: 80000002 cycles: 27502309 heartbeat IPC: 2.91448 cumulative IPC: 2.90885 (Simulation time: 13 hr 58 min 49 sec) 
 Total Blocks : 262144 Invalid Blocks : 0
Heartbeat CPU 1 instructions: 80000000 cycles: 27502992 heartbeat IPC: 2.91398 cumulative IPC: 2.90877 (Simulation time: 13 hr 58 min 50 sec) 
 Total Blocks : 262144 Invalid Blocks : 0
Heartbeat CPU 3 instructions: 80000002 cycles: 27503144 heartbeat IPC: 2.914 cumulative IPC: 2.90876 (Simulation time: 13 hr 58 min 50 sec) 
 Total Blocks : 262144 Invalid Blocks : 0
Heartbeat CPU 4 instructions: 80000000 cycles: 27506214 heartbeat IPC: 2.91328 cumulative IPC: 2.90843 (Simulation time: 13 hr 59 min 0 sec) 
 Total Blocks : 262144 Invalid Blocks : 0
Heartbeat CPU 5 instructions: 80000002 cycles: 27509563 heartbeat IPC: 2.91264 cumulative IPC: 2.90808 (Simulation time: 13 hr 59 min 9 sec) 
 Total Blocks : 262144 Invalid Blocks : 0
Heartbeat CPU 6 instructions: 80000002 cycles: 27510274 heartbeat IPC: 2.91347 cumulative IPC: 2.908 (Simulation time: 13 hr 59 min 11 sec) 
 Total Blocks : 262144 Invalid Blocks : 0
Heartbeat CPU 7 instructions: 80000000 cycles: 27512461 heartbeat IPC: 2.91305 cumulative IPC: 2.90777 (Simulation time: 13 hr 59 min 18 sec) 
 Total Blocks : 262144 Invalid Blocks : 0
Heartbeat CPU 0 instructions: 90000002 cycles: 30925860 heartbeat IPC: 2.91623 cumulative IPC: 2.91019 (Simulation time: 16 hr 44 min 30 sec) 
 Total Blocks : 262144 Invalid Blocks : 0
Heartbeat CPU 2 instructions: 90000003 cycles: 30932042 heartbeat IPC: 2.91568 cumulative IPC: 2.9096 (Simulation time: 16 hr 44 min 48 sec) 
 Total Blocks : 262144 Invalid Blocks : 0
Heartbeat CPU 1 instructions: 90000003 cycles: 30932450 heartbeat IPC: 2.91591 cumulative IPC: 2.90957 (Simulation time: 16 hr 44 min 50 sec) 
 Total Blocks : 262144 Invalid Blocks : 0
Heartbeat CPU 3 instructions: 90000002 cycles: 30933432 heartbeat IPC: 2.91521 cumulative IPC: 2.90947 (Simulation time: 16 hr 44 min 53 sec) 
 Total Blocks : 262144 Invalid Blocks : 0
Heartbeat CPU 4 instructions: 90000002 cycles: 30936707 heartbeat IPC: 2.91503 cumulative IPC: 2.90917 (Simulation time: 16 hr 45 min 3 sec) 
 Total Blocks : 262144 Invalid Blocks : 0
Heartbeat CPU 5 instructions: 90000003 cycles: 30940582 heartbeat IPC: 2.91459 cumulative IPC: 2.9088 (Simulation time: 16 hr 45 min 14 sec) 
 Total Blocks : 262144 Invalid Blocks : 0
Heartbeat CPU 6 instructions: 90000003 cycles: 30941773 heartbeat IPC: 2.91418 cumulative IPC: 2.90869 (Simulation time: 16 hr 45 min 18 sec) 
 Total Blocks : 262144 Invalid Blocks : 0
Heartbeat CPU 7 instructions: 90000003 cycles: 30943963 heartbeat IPC: 2.91418 cumulative IPC: 2.90848 (Simulation time: 16 hr 45 min 24 sec) 
 Total Blocks : 262144 Invalid Blocks : 0
Heartbeat CPU 0 instructions: 100000003 cycles: 34357050 heartbeat IPC: 2.91444 cumulative IPC: 2.91061 (Simulation time: 19 hr 44 min 15 sec) 
 Total Blocks : 262144 Invalid Blocks : 0
Heartbeat CPU 1 instructions: 100000003 cycles: 34364251 heartbeat IPC: 2.91392 cumulative IPC: 2.91 (Simulation time: 19 hr 44 min 39 sec) 
 Total Blocks : 262144 Invalid Blocks : 0
Heartbeat CPU 2 instructions: 100000003 cycles: 34364591 heartbeat IPC: 2.91329 cumulative IPC: 2.90997 (Simulation time: 19 hr 44 min 40 sec) 
 Total Blocks : 262144 Invalid Blocks : 0
Heartbeat CPU 3 instructions: 100000003 cycles: 34366080 heartbeat IPC: 2.9132 cumulative IPC: 2.90985 (Simulation time: 19 hr 44 min 46 sec) 
 Total Blocks : 262144 Invalid Blocks : 0
Heartbeat CPU 4 instructions: 100000000 cycles: 34369731 heartbeat IPC: 2.91288 cumulative IPC: 2.90954 (Simulation time: 19 hr 44 min 58 sec) 
 Total Blocks : 262144 Invalid Blocks : 0
Heartbeat CPU 5 instructions: 100000003 cycles: 34373942 heartbeat IPC: 2.9126 cumulative IPC: 2.90918 (Simulation time: 19 hr 45 min 9 sec) 
 Total Blocks : 262144 Invalid Blocks : 0
Heartbeat CPU 6 instructions: 100000000 cycles: 34375528 heartbeat IPC: 2.91226 cumulative IPC: 2.90905 (Simulation time: 19 hr 45 min 13 sec) 
 Total Blocks : 262144 Invalid Blocks : 0
Heartbeat CPU 7 instructions: 100000003 cycles: 34378703 heartbeat IPC: 2.91143 cumulative IPC: 2.90878 (Simulation time: 19 hr 45 min 21 sec) 
 Total Blocks : 262144 Invalid Blocks : 0
Heartbeat CPU 0 instructions: 110000000 cycles: 37792394 heartbeat IPC: 2.91092 cumulative IPC: 2.91064 (Simulation time: 22 hr 44 min 46 sec) 
 Total Blocks : 262144 Invalid Blocks : 0
Heartbeat CPU 1 instructions: 110000000 cycles: 37800257 heartbeat IPC: 2.91035 cumulative IPC: 2.91003 (Simulation time: 22 hr 45 min 8 sec) 
 Total Blocks : 262144 Invalid Blocks : 0
Heartbeat CPU 2 instructions: 110000000 cycles: 37800265 heartbeat IPC: 2.91064 cumulative IPC: 2.91003 (Simulation time: 22 hr 45 min 8 sec) 
 Total Blocks : 262144 Invalid Blocks : 0
Heartbeat CPU 3 instructions: 110000000 cycles: 37802373 heartbeat IPC: 2.91011 cumulative IPC: 2.90987 (Simulation time: 22 hr 45 min 13 sec) 
 Total Blocks : 262144 Invalid Blocks : 0
Heartbeat CPU 4 instructions: 110000000 cycles: 37806349 heartbeat IPC: 2.90984 cumulative IPC: 2.90956 (Simulation time: 22 hr 45 min 25 sec) 
 Total Blocks : 262144 Invalid Blocks : 0
Heartbeat CPU 5 instructions: 110000000 cycles: 37810498 heartbeat IPC: 2.90989 cumulative IPC: 2.90925 (Simulation time: 22 hr 45 min 38 sec) 
 Total Blocks : 262144 Invalid Blocks : 0
Heartbeat CPU 6 instructions: 110000000 cycles: 37812577 heartbeat IPC: 2.90947 cumulative IPC: 2.90909 (Simulation time: 22 hr 45 min 44 sec) 
 Total Blocks : 262144 Invalid Blocks : 0
Heartbeat CPU 7 instructions: 110000000 cycles: 37815770 heartbeat IPC: 2.90946 cumulative IPC: 2.90884 (Simulation time: 22 hr 45 min 53 sec) 
 Total Blocks : 262144 Invalid Blocks : 0
Heartbeat CPU 0 instructions: 120000003 cycles: 41229995 heartbeat IPC: 2.90901 cumulative IPC: 2.9105 (Simulation time: 26 hr 9 min 50 sec) 
 Total Blocks : 262144 Invalid Blocks : 0
Heartbeat CPU 2 instructions: 120000003 cycles: 41237913 heartbeat IPC: 2.90897 cumulative IPC: 2.90994 (Simulation time: 26 hr 10 min 16 sec) 
 Total Blocks : 262144 Invalid Blocks : 0
Heartbeat CPU 1 instructions: 120000003 cycles: 41238900 heartbeat IPC: 2.90812 cumulative IPC: 2.90987 (Simulation time: 26 hr 10 min 19 sec) 
 Total Blocks : 262144 Invalid Blocks : 0
Heartbeat CPU 3 instructions: 120000003 cycles: 41240523 heartbeat IPC: 2.90854 cumulative IPC: 2.90976 (Simulation time: 26 hr 10 min 23 sec) 
 Total Blocks : 262144 Invalid Blocks : 0
Heartbeat CPU 4 instructions: 120000003 cycles: 41244690 heartbeat IPC: 2.90838 cumulative IPC: 2.90947 (Simulation time: 26 hr 10 min 37 sec) 
 Total Blocks : 262144 Invalid Blocks : 0
Heartbeat CPU 5 instructions: 120000003 cycles: 41249287 heartbeat IPC: 2.908 cumulative IPC: 2.90914 (Simulation time: 26 hr 10 min 53 sec) 
 Total Blocks : 262144 Invalid Blocks : 0
Heartbeat CPU 6 instructions: 120000003 cycles: 41252342 heartbeat IPC: 2.90718 cumulative IPC: 2.90893 (Simulation time: 26 hr 11 min 3 sec) 
 Total Blocks : 262144 Invalid Blocks : 0
Heartbeat CPU 7 instructions: 120000003 cycles: 41255842 heartbeat IPC: 2.90692 cumulative IPC: 2.90868 (Simulation time: 26 hr 11 min 13 sec) 
 Total Blocks : 262144 Invalid Blocks : 0
Heartbeat CPU 0 instructions: 130000002 cycles: 44663488 heartbeat IPC: 2.91249 cumulative IPC: 2.91066 (Simulation time: 29 hr 19 min 17 sec) 
 Total Blocks : 262144 Invalid Blocks : 0
Heartbeat CPU 2 instructions: 130000002 cycles: 44673321 heartbeat IPC: 2.91086 cumulative IPC: 2.91001 (Simulation time: 29 hr 19 min 49 sec) 
 Total Blocks : 262144 Invalid Blocks : 0
Heartbeat CPU 1 instructions: 130000002 cycles: 44673924 heartbeat IPC: 2.91119 cumulative IPC: 2.90998 (Simulation time: 29 hr 19 min 51 sec) 
 Total Blocks : 262144 Invalid Blocks : 0
Heartbeat CPU 3 instructions: 130000002 cycles: 44675435 heartbeat IPC: 2.91128 cumulative IPC: 2.90988 (Simulation time: 29 hr 19 min 56 sec) 
 Total Blocks : 262144 Invalid Blocks : 0
Heartbeat CPU 4 instructions: 130000002 cycles: 44680562 heartbeat IPC: 2.91047 cumulative IPC: 2.90954 (Simulation time: 29 hr 20 min 13 sec) 
 Total Blocks : 262144 Invalid Blocks : 0
Heartbeat CPU 5 instructions: 130000002 cycles: 44685160 heartbeat IPC: 2.91047 cumulative IPC: 2.90924 (Simulation time: 29 hr 20 min 29 sec) 
 Total Blocks : 262144 Invalid Blocks : 0
Heartbeat CPU 6 instructions: 130000002 cycles: 44688637 heartbeat IPC: 2.91011 cumulative IPC: 2.90902 (Simulation time: 29 hr 20 min 41 sec) 
 Total Blocks : 262144 Invalid Blocks : 0
Heartbeat CPU 7 instructions: 130000002 cycles: 44692750 heartbeat IPC: 2.90959 cumulative IPC: 2.90875 (Simulation time: 29 hr 20 min 55 sec) 
 Total Blocks : 262144 Invalid Blocks : 0
Heartbeat CPU 0 instructions: 140000002 cycles: 48097536 heartbeat IPC: 2.91202 cumulative IPC: 2.91075 (Simulation time: 32 hr 42 min 24 sec) 
 Total Blocks : 262144 Invalid Blocks : 0
Heartbeat CPU 1 instructions: 140000002 cycles: 48107450 heartbeat IPC: 2.91246 cumulative IPC: 2.91015 (Simulation time: 32 hr 43 min 1 sec) 
 Total Blocks : 262144 Invalid Blocks : 0
Heartbeat CPU 2 instructions: 140000002 cycles: 48108007 heartbeat IPC: 2.91147 cumulative IPC: 2.91012 (Simulation time: 32 hr 43 min 3 sec) 
 Total Blocks : 262144 Invalid Blocks : 0
Heartbeat CPU 3 instructions: 140000003 cycles: 48111045 heartbeat IPC: 2.91069 cumulative IPC: 2.90993 (Simulation time: 32 hr 43 min 15 sec) 
 Total Blocks : 262144 Invalid Blocks : 0
Heartbeat CPU 4 instructions: 140000003 cycles: 48115604 heartbeat IPC: 2.91117 cumulative IPC: 2.90966 (Simulation time: 32 hr 43 min 32 sec) 
 Total Blocks : 262144 Invalid Blocks : 0
Heartbeat CPU 5 instructions: 140000002 cycles: 48121199 heartbeat IPC: 2.91033 cumulative IPC: 2.90932 (Simulation time: 32 hr 43 min 52 sec) 
 Total Blocks : 262144 Invalid Blocks : 0
Heartbeat CPU 6 instructions: 140000003 cycles: 48124507 heartbeat IPC: 2.91047 cumulative IPC: 2.90912 (Simulation time: 32 hr 44 min 5 sec) 
 Total Blocks : 262144 Invalid Blocks : 0
Heartbeat CPU 7 instructions: 140000003 cycles: 48129921 heartbeat IPC: 2.90937 cumulative IPC: 2.90879 (Simulation time: 32 hr 44 min 24 sec) 
 Total Blocks : 262144 Invalid Blocks : 0
Heartbeat CPU 0 instructions: 150000003 cycles: 51530060 heartbeat IPC: 2.91331 cumulative IPC: 2.91092 (Simulation time: 36 hr 50 min 16 sec) 
 Total Blocks : 262144 Invalid Blocks : 0
Heartbeat CPU 1 instructions: 150000002 cycles: 51540595 heartbeat IPC: 2.91278 cumulative IPC: 2.91033 (Simulation time: 36 hr 51 min 12 sec) 
 Total Blocks : 262144 Invalid Blocks : 0
Heartbeat CPU 2 instructions: 150000003 cycles: 51541615 heartbeat IPC: 2.91239 cumulative IPC: 2.91027 (Simulation time: 36 hr 51 min 17 sec) 
 Total Blocks : 262144 Invalid Blocks : 0
Heartbeat CPU 3 instructions: 150000002 cycles: 51544630 heartbeat IPC: 2.91241 cumulative IPC: 2.9101 (Simulation time: 36 hr 51 min 32 sec) 
 Total Blocks : 262144 Invalid Blocks : 0
Heartbeat CPU 4 instructions: 150000002 cycles: 51550559 heartbeat IPC: 2.91125 cumulative IPC: 2.90976 (Simulation time: 36 hr 52 min 2 sec) 
 Total Blocks : 262144 Invalid Blocks : 0
Heartbeat CPU 5 instructions: 150000003 cycles: 51555862 heartbeat IPC: 2.91149 cumulative IPC: 2.90947 (Simulation time: 36 hr 52 min 32 sec) 
 Total Blocks : 262144 Invalid Blocks : 0
Heartbeat CPU 6 instructions: 150000002 cycles: 51559995 heartbeat IPC: 2.91079 cumulative IPC: 2.90923 (Simulation time: 36 hr 52 min 52 sec) 
 Total Blocks : 262144 Invalid Blocks : 0
Heartbeat CPU 7 instructions: 150000003 cycles: 51565156 heartbeat IPC: 2.91101 cumulative IPC: 2.90894 (Simulation time: 36 hr 53 min 16 sec) 
 Total Blocks : 262144 Invalid Blocks : 0
Heartbeat CPU 0 instructions: 160000002 cycles: 54960443 heartbeat IPC: 2.91513 cumulative IPC: 2.91118 (Simulation time: 41 hr 44 min 46 sec) 
 Total Blocks : 262144 Invalid Blocks : 0
Heartbeat CPU 1 instructions: 160000002 cycles: 54971575 heartbeat IPC: 2.91462 cumulative IPC: 2.9106 (Simulation time: 41 hr 45 min 46 sec) 
 Total Blocks : 262144 Invalid Blocks : 0
Heartbeat CPU 2 instructions: 160000002 cycles: 54973407 heartbeat IPC: 2.91393 cumulative IPC: 2.9105 (Simulation time: 41 hr 45 min 55 sec) 
 Total Blocks : 262144 Invalid Blocks : 0
Heartbeat CPU 3 instructions: 160000002 cycles: 54977095 heartbeat IPC: 2.91336 cumulative IPC: 2.9103 (Simulation time: 41 hr 46 min 16 sec) 
 Total Blocks : 262144 Invalid Blocks : 0
Heartbeat CPU 4 instructions: 160000002 cycles: 54983136 heartbeat IPC: 2.91326 cumulative IPC: 2.90998 (Simulation time: 41 hr 46 min 48 sec) 
 Total Blocks : 262144 Invalid Blocks : 0
Heartbeat CPU 5 instructions: 160000002 cycles: 54988749 heartbeat IPC: 2.913 cumulative IPC: 2.90969 (Simulation time: 41 hr 47 min 18 sec) 
 Total Blocks : 262144 Invalid Blocks : 0
Heartbeat CPU 6 instructions: 160000002 cycles: 54993141 heartbeat IPC: 2.91278 cumulative IPC: 2.90945 (Simulation time: 41 hr 47 min 43 sec) 
 Total Blocks : 262144 Invalid Blocks : 0
Heartbeat CPU 7 instructions: 160000002 cycles: 54999442 heartbeat IPC: 2.91181 cumulative IPC: 2.90912 (Simulation time: 41 hr 48 min 16 sec) 
 Total Blocks : 262144 Invalid Blocks : 0
Heartbeat CPU 0 instructions: 170000002 cycles: 58392918 heartbeat IPC: 2.91335 cumulative IPC: 2.91131 (Simulation time: 46 hr 50 min 22 sec) 
 Total Blocks : 262144 Invalid Blocks : 0
Heartbeat CPU 1 instructions: 170000002 cycles: 58404572 heartbeat IPC: 2.91291 cumulative IPC: 2.91073 (Simulation time: 46 hr 51 min 25 sec) 
 Total Blocks : 262144 Invalid Blocks : 0
Heartbeat CPU 2 instructions: 170000002 cycles: 58407542 heartbeat IPC: 2.91194 cumulative IPC: 2.91058 (Simulation time: 46 hr 51 min 39 sec) 
 Total Blocks : 262144 Invalid Blocks : 0
Heartbeat CPU 3 instructions: 170000002 cycles: 58411511 heartbeat IPC: 2.9117 cumulative IPC: 2.91039 (Simulation time: 46 hr 51 min 59 sec) 
 Total Blocks : 262144 Invalid Blocks : 0
Heartbeat CPU 4 instructions: 170000002 cycles: 58417218 heartbeat IPC: 2.91199 cumulative IPC: 2.9101 (Simulation time: 46 hr 52 min 31 sec) 
 Total Blocks : 262144 Invalid Blocks : 0
Heartbeat CPU 5 instructions: 170000002 cycles: 58423170 heartbeat IPC: 2.9117 cumulative IPC: 2.9098 (Simulation time: 46 hr 53 min 4 sec) 
 Total Blocks : 262144 Invalid Blocks : 0
Heartbeat CPU 6 instructions: 170000002 cycles: 58428829 heartbeat IPC: 2.91063 cumulative IPC: 2.90952 (Simulation time: 46 hr 53 min 36 sec) 
 Total Blocks : 262144 Invalid Blocks : 0
Heartbeat CPU 7 instructions: 170000002 cycles: 58436116 heartbeat IPC: 2.90979 cumulative IPC: 2.90916 (Simulation time: 46 hr 54 min 16 sec) 
 Total Blocks : 262144 Invalid Blocks : 0
Heartbeat CPU 0 instructions: 180000001 cycles: 61826942 heartbeat IPC: 2.91204 cumulative IPC: 2.91135 (Simulation time: 52 hr 14 min 39 sec) 
 Total Blocks : 262144 Invalid Blocks : 0
Heartbeat CPU 1 instructions: 180000001 cycles: 61839534 heartbeat IPC: 2.91124 cumulative IPC: 2.91076 (Simulation time: 52 hr 15 min 56 sec) 
 Total Blocks : 262144 Invalid Blocks : 0
Heartbeat CPU 2 instructions: 180000001 cycles: 61843819 heartbeat IPC: 2.91013 cumulative IPC: 2.91056 (Simulation time: 52 hr 16 min 21 sec) 
 Total Blocks : 262144 Invalid Blocks : 0
Heartbeat CPU 3 instructions: 180000001 cycles: 61848315 heartbeat IPC: 2.90968 cumulative IPC: 2.91035 (Simulation time: 52 hr 16 min 48 sec) 
 Total Blocks : 262144 Invalid Blocks : 0
Heartbeat CPU 4 instructions: 180000001 cycles: 61853682 heartbeat IPC: 2.90997 cumulative IPC: 2.91009 (Simulation time: 52 hr 17 min 20 sec) 
 Total Blocks : 262144 Invalid Blocks : 0
Heartbeat CPU 5 instructions: 180000001 cycles: 61860011 heartbeat IPC: 2.90965 cumulative IPC: 2.9098 (Simulation time: 52 hr 17 min 57 sec) 
 Total Blocks : 262144 Invalid Blocks : 0
Heartbeat CPU 6 instructions: 180000001 cycles: 61865961 heartbeat IPC: 2.9094 cumulative IPC: 2.90952 (Simulation time: 52 hr 18 min 33 sec) 
 Total Blocks : 262144 Invalid Blocks : 0
Heartbeat CPU 7 instructions: 180000001 cycles: 61874150 heartbeat IPC: 2.90864 cumulative IPC: 2.90913 (Simulation time: 52 hr 19 min 20 sec) 
 Total Blocks : 262144 Invalid Blocks : 0
Heartbeat CPU 0 instructions: 190000003 cycles: 65261911 heartbeat IPC: 2.91124 cumulative IPC: 2.91135 (Simulation time: 57 hr 47 min 39 sec) 
 Total Blocks : 262144 Invalid Blocks : 0
Heartbeat CPU 1 instructions: 190000003 cycles: 65275762 heartbeat IPC: 2.91017 cumulative IPC: 2.91073 (Simulation time: 57 hr 48 min 49 sec) 
 Total Blocks : 262144 Invalid Blocks : 0
Heartbeat CPU 2 instructions: 190000003 cycles: 65280598 heartbeat IPC: 2.9097 cumulative IPC: 2.91051 (Simulation time: 57 hr 49 min 11 sec) 
 Total Blocks : 262144 Invalid Blocks : 0
Heartbeat CPU 3 instructions: 190000003 cycles: 65285418 heartbeat IPC: 2.90943 cumulative IPC: 2.9103 (Simulation time: 57 hr 49 min 33 sec) 
 Total Blocks : 262144 Invalid Blocks : 0
Heartbeat CPU 4 instructions: 190000003 cycles: 65291030 heartbeat IPC: 2.90922 cumulative IPC: 2.91005 (Simulation time: 57 hr 50 min 2 sec) 
 Total Blocks : 262144 Invalid Blocks : 0
Heartbeat CPU 5 instructions: 190000003 cycles: 65297325 heartbeat IPC: 2.90925 cumulative IPC: 2.90977 (Simulation time: 57 hr 50 min 39 sec) 
 Total Blocks : 262144 Invalid Blocks : 0
Heartbeat CPU 6 instructions: 190000003 cycles: 65304218 heartbeat IPC: 2.90845 cumulative IPC: 2.90946 (Simulation time: 57 hr 51 min 21 sec) 
 Total Blocks : 262144 Invalid Blocks : 0
Heartbeat CPU 7 instructions: 190000003 cycles: 65313150 heartbeat IPC: 2.90782 cumulative IPC: 2.90906 (Simulation time: 57 hr 52 min 12 sec) 
 Total Blocks : 262144 Invalid Blocks : 0
Heartbeat CPU 0 instructions: 200000002 cycles: 68699556 heartbeat IPC: 2.90897 cumulative IPC: 2.91123 (Simulation time: 63 hr 41 min 24 sec) 
 Total Blocks : 262144 Invalid Blocks : 0
Heartbeat CPU 1 instructions: 200000002 cycles: 68714369 heartbeat IPC: 2.90815 cumulative IPC: 2.9106 (Simulation time: 63 hr 43 min 1 sec) 
 Total Blocks : 262144 Invalid Blocks : 0
Heartbeat CPU 2 instructions: 200000003 cycles: 68719581 heartbeat IPC: 2.90784 cumulative IPC: 2.91038 (Simulation time: 63 hr 43 min 33 sec) 
 Total Blocks : 262144 Invalid Blocks : 0
Heartbeat CPU 3 instructions: 200000002 cycles: 68724875 heartbeat IPC: 2.90744 cumulative IPC: 2.91015 (Simulation time: 63 hr 44 min 9 sec) 
 Total Blocks : 262144 Invalid Blocks : 0
Heartbeat CPU 4 instructions: 200000002 cycles: 68731031 heartbeat IPC: 2.90698 cumulative IPC: 2.90989 (Simulation time: 63 hr 44 min 47 sec) 
 Total Blocks : 262144 Invalid Blocks : 0
Heartbeat CPU 5 instructions: 200000003 cycles: 68737265 heartbeat IPC: 2.90703 cumulative IPC: 2.90963 (Simulation time: 63 hr 45 min 27 sec) 
 Total Blocks : 262144 Invalid Blocks : 0
Heartbeat CPU 6 instructions: 200000002 cycles: 68745140 heartbeat IPC: 2.9062 cumulative IPC: 2.9093 (Simulation time: 63 hr 46 min 17 sec) 
 Total Blocks : 262144 Invalid Blocks : 0
Heartbeat CPU 7 instructions: 200000003 cycles: 68754410 heartbeat IPC: 2.90591 cumulative IPC: 2.9089 (Simulation time: 63 hr 47 min 15 sec) 
 Total Blocks : 262144 Invalid Blocks : 0

Warmup complete CPU 0 instructions: 200159876 cycles: 68754410 (Simulation time: 63 hr 47 min 15 sec) 
Warmup complete CPU 1 instructions: 200116166 cycles: 68754410 (Simulation time: 63 hr 47 min 15 sec) 
Warmup complete CPU 2 instructions: 200101091 cycles: 68754410 (Simulation time: 63 hr 47 min 15 sec) 
Warmup complete CPU 3 instructions: 200085905 cycles: 68754410 (Simulation time: 63 hr 47 min 15 sec) 
Warmup complete CPU 4 instructions: 200067656 cycles: 68754410 (Simulation time: 63 hr 47 min 15 sec) 
Warmup complete CPU 5 instructions: 200050079 cycles: 68754410 (Simulation time: 63 hr 47 min 15 sec) 
Warmup complete CPU 6 instructions: 200027126 cycles: 68754410 (Simulation time: 63 hr 47 min 15 sec) 
Warmup complete CPU 7 instructions: 200000003 cycles: 68754410 (Simulation time: 63 hr 47 min 15 sec) 

Heartbeat CPU 0 instructions: 210000002 cycles: 152911330 heartbeat IPC: 0.118748 cumulative IPC: 0.116926 (Simulation time: 70 hr 25 min 36 sec) 
 Total Blocks : 262144 Invalid Blocks : 0
Heartbeat CPU 1 instructions: 210000002 cycles: 153092086 heartbeat IPC: 0.118515 cumulative IPC: 0.117194 (Simulation time: 70 hr 26 min 29 sec) 
 Total Blocks : 262144 Invalid Blocks : 0
Heartbeat CPU 2 instructions: 210000002 cycles: 153316131 heartbeat IPC: 0.118208 cumulative IPC: 0.117061 (Simulation time: 70 hr 27 min 32 sec) 
 Total Blocks : 262144 Invalid Blocks : 0
Heartbeat CPU 4 instructions: 210000002 cycles: 153569714 heartbeat IPC: 0.117871 cumulative IPC: 0.117106 (Simulation time: 70 hr 28 min 43 sec) 
 Total Blocks : 262144 Invalid Blocks : 0
Heartbeat CPU 5 instructions: 210000002 cycles: 153731759 heartbeat IPC: 0.117655 cumulative IPC: 0.117089 (Simulation time: 70 hr 29 min 27 sec) 
 Total Blocks : 262144 Invalid Blocks : 0
Heartbeat CPU 6 instructions: 210000002 cycles: 153748081 heartbeat IPC: 0.117643 cumulative IPC: 0.117337 (Simulation time: 70 hr 29 min 33 sec) 
 Total Blocks : 262144 Invalid Blocks : 0
Heartbeat CPU 3 instructions: 210000002 cycles: 153801398 heartbeat IPC: 0.117541 cumulative IPC: 0.116572 (Simulation time: 70 hr 29 min 49 sec) 
 Total Blocks : 262144 Invalid Blocks : 0
Heartbeat CPU 7 instructions: 210000002 cycles: 154886788 heartbeat IPC: 0.1161 cumulative IPC: 0.1161 (Simulation time: 70 hr 35 min 6 sec) 
 Total Blocks : 262144 Invalid Blocks : 0
Heartbeat CPU 0 instructions: 220000000 cycles: 239003486 heartbeat IPC: 0.116155 cumulative IPC: 0.116536 (Simulation time: 76 hr 55 min 46 sec) 
 Total Blocks : 262144 Invalid Blocks : 0
Heartbeat CPU 1 instructions: 220000000 cycles: 239203631 heartbeat IPC: 0.116128 cumulative IPC: 0.116655 (Simulation time: 76 hr 56 min 34 sec) 
 Total Blocks : 262144 Invalid Blocks : 0
Heartbeat CPU 2 instructions: 220000000 cycles: 239838583 heartbeat IPC: 0.115577 cumulative IPC: 0.116311 (Simulation time: 76 hr 59 min 5 sec) 
 Total Blocks : 262144 Invalid Blocks : 0
Heartbeat CPU 5 instructions: 220000000 cycles: 239857917 heartbeat IPC: 0.116109 cumulative IPC: 0.116596 (Simulation time: 76 hr 59 min 9 sec) 
 Total Blocks : 262144 Invalid Blocks : 0
Heartbeat CPU 4 instructions: 220000000 cycles: 239923314 heartbeat IPC: 0.115803 cumulative IPC: 0.116448 (Simulation time: 76 hr 59 min 26 sec) 
 Total Blocks : 262144 Invalid Blocks : 0
Heartbeat CPU 3 instructions: 220000000 cycles: 240174204 heartbeat IPC: 0.115777 cumulative IPC: 0.116172 (Simulation time: 77 hr 0 min 25 sec) 
 Total Blocks : 262144 Invalid Blocks : 0
Heartbeat CPU 6 instructions: 220000000 cycles: 240290580 heartbeat IPC: 0.11555 cumulative IPC: 0.116435 (Simulation time: 77 hr 0 min 55 sec) 
 Total Blocks : 262144 Invalid Blocks : 0
Heartbeat CPU 7 instructions: 220000000 cycles: 241724024 heartbeat IPC: 0.115158 cumulative IPC: 0.115627 (Simulation time: 77 hr 6 min 37 sec) 
 Total Blocks : 262144 Invalid Blocks : 0
Heartbeat CPU 0 instructions: 230000002 cycles: 325925635 heartbeat IPC: 0.115045 cumulative IPC: 0.116032 (Simulation time: 82 hr 44 min 9 sec) 
 Total Blocks : 262144 Invalid Blocks : 0
Heartbeat CPU 1 instructions: 230000002 cycles: 326161311 heartbeat IPC: 0.114998 cumulative IPC: 0.116096 (Simulation time: 82 hr 45 min 5 sec) 
 Total Blocks : 262144 Invalid Blocks : 0
Heartbeat CPU 5 instructions: 230000002 cycles: 326574916 heartbeat IPC: 0.115318 cumulative IPC: 0.116166 (Simulation time: 82 hr 46 min 46 sec) 
 Total Blocks : 262144 Invalid Blocks : 0
Heartbeat CPU 6 instructions: 230000002 cycles: 327025451 heartbeat IPC: 0.115294 cumulative IPC: 0.116052 (Simulation time: 82 hr 48 min 37 sec) 
 Total Blocks : 262144 Invalid Blocks : 0
Heartbeat CPU 4 instructions: 230000002 cycles: 327074192 heartbeat IPC: 0.114744 cumulative IPC: 0.115873 (Simulation time: 82 hr 48 min 48 sec) 
 Total Blocks : 262144 Invalid Blocks : 0
Heartbeat CPU 3 instructions: 230000002 cycles: 327090616 heartbeat IPC: 0.115053 cumulative IPC: 0.115795 (Simulation time: 82 hr 48 min 52 sec) 
 Total Blocks : 262144 Invalid Blocks : 0
Heartbeat CPU 2 instructions: 230000002 cycles: 327192482 heartbeat IPC: 0.114477 cumulative IPC: 0.115691 (Simulation time: 82 hr 49 min 16 sec) 
 Total Blocks : 262144 Invalid Blocks : 0
Heartbeat CPU 7 instructions: 230000002 cycles: 328787864 heartbeat IPC: 0.114858 cumulative IPC: 0.11537 (Simulation time: 82 hr 55 min 52 sec) 
 Total Blocks : 262144 Invalid Blocks : 0
Heartbeat CPU 0 instructions: 240000001 cycles: 413124948 heartbeat IPC: 0.11468 cumulative IPC: 0.11569 (Simulation time: 88 hr 47 min 37 sec) 
 Total Blocks : 262144 Invalid Blocks : 0
Heartbeat CPU 1 instructions: 240000000 cycles: 413324877 heartbeat IPC: 0.114727 cumulative IPC: 0.115749 (Simulation time: 88 hr 48 min 27 sec) 
 Total Blocks : 262144 Invalid Blocks : 0
Heartbeat CPU 5 instructions: 240000001 cycles: 413518294 heartbeat IPC: 0.115017 cumulative IPC: 0.115876 (Simulation time: 88 hr 49 min 17 sec) 
 Total Blocks : 262144 Invalid Blocks : 0
Heartbeat CPU 6 instructions: 240000001 cycles: 413911798 heartbeat IPC: 0.115093 cumulative IPC: 0.115811 (Simulation time: 88 hr 50 min 57 sec) 
 Total Blocks : 262144 Invalid Blocks : 0
Heartbeat CPU 3 instructions: 240000001 cycles: 414086071 heartbeat IPC: 0.114949 cumulative IPC: 0.115582 (Simulation time: 88 hr 51 min 42 sec) 
 Total Blocks : 262144 Invalid Blocks : 0
Heartbeat CPU 2 instructions: 240000000 cycles: 414087392 heartbeat IPC: 0.115082 cumulative IPC: 0.115538 (Simulation time: 88 hr 51 min 42 sec) 
 Total Blocks : 262144 Invalid Blocks : 0
Heartbeat CPU 4 instructions: 240000001 cycles: 414297177 heartbeat IPC: 0.114649 cumulative IPC: 0.115564 (Simulation time: 88 hr 52 min 38 sec) 
 Total Blocks : 262144 Invalid Blocks : 0
Heartbeat CPU 7 instructions: 240000001 cycles: 415670628 heartbeat IPC: 0.115098 cumulative IPC: 0.115302 (Simulation time: 88 hr 58 min 27 sec) 
 Total Blocks : 262144 Invalid Blocks : 0
Heartbeat CPU 0 instructions: 250000000 cycles: 501487276 heartbeat IPC: 0.11317 cumulative IPC: 0.115175 (Simulation time: 95 hr 5 min 38 sec) 
 Total Blocks : 262144 Invalid Blocks : 0
Heartbeat CPU 1 instructions: 250000000 cycles: 501551514 heartbeat IPC: 0.113344 cumulative IPC: 0.115259 (Simulation time: 95 hr 5 min 54 sec) 
 Total Blocks : 262144 Invalid Blocks : 0
Heartbeat CPU 5 instructions: 250000000 cycles: 502164321 heartbeat IPC: 0.112808 cumulative IPC: 0.115249 (Simulation time: 95 hr 8 min 33 sec) 
 Total Blocks : 262144 Invalid Blocks : 0
Heartbeat CPU 6 instructions: 250000000 cycles: 502252540 heartbeat IPC: 0.113198 cumulative IPC: 0.115278 (Simulation time: 95 hr 8 min 54 sec) 
 Total Blocks : 262144 Invalid Blocks : 0
Heartbeat CPU 3 instructions: 250000000 cycles: 502569716 heartbeat IPC: 0.113015 cumulative IPC: 0.115058 (Simulation time: 95 hr 10 min 21 sec) 
 Total Blocks : 262144 Invalid Blocks : 0
Heartbeat CPU 2 instructions: 250000000 cycles: 502640144 heartbeat IPC: 0.112927 cumulative IPC: 0.115005 (Simulation time: 95 hr 10 min 38 sec) 
 Total Blocks : 262144 Invalid Blocks : 0
Heartbeat CPU 4 instructions: 250000000 cycles: 502796849 heartbeat IPC: 0.112995 cumulative IPC: 0.11504 (Simulation time: 95 hr 11 min 20 sec) 
 Total Blocks : 262144 Invalid Blocks : 0
Heartbeat CPU 7 instructions: 250000000 cycles: 504618898 heartbeat IPC: 0.112425 cumulative IPC: 0.114715 (Simulation time: 95 hr 19 min 22 sec) 
 Total Blocks : 262144 Invalid Blocks : 0
Heartbeat CPU 0 instructions: 260000003 cycles: 590570442 heartbeat IPC: 0.112255 cumulative IPC: 0.114677 (Simulation time: 101 hr 39 min 24 sec) 
 Total Blocks : 262144 Invalid Blocks : 0
Heartbeat CPU 1 instructions: 260000003 cycles: 590703041 heartbeat IPC: 0.112169 cumulative IPC: 0.114731 (Simulation time: 101 hr 40 min 1 sec) 
 Total Blocks : 262144 Invalid Blocks : 0
Heartbeat CPU 6 instructions: 260000000 cycles: 591165871 heartbeat IPC: 0.112469 cumulative IPC: 0.1148 (Simulation time: 101 hr 42 min 11 sec) 
 Total Blocks : 262144 Invalid Blocks : 0
Heartbeat CPU 5 instructions: 260000000 cycles: 591484976 heartbeat IPC: 0.111956 cumulative IPC: 0.114686 (Simulation time: 101 hr 43 min 38 sec) 
 Total Blocks : 262144 Invalid Blocks : 0
Heartbeat CPU 2 instructions: 260000003 cycles: 591610601 heartbeat IPC: 0.112397 cumulative IPC: 0.114561 (Simulation time: 101 hr 44 min 14 sec) 
 Total Blocks : 262144 Invalid Blocks : 0
Heartbeat CPU 3 instructions: 260000000 cycles: 591696884 heartbeat IPC: 0.112199 cumulative IPC: 0.114571 (Simulation time: 101 hr 44 min 39 sec) 
 Total Blocks : 262144 Invalid Blocks : 0
Heartbeat CPU 4 instructions: 260000000 cycles: 591831092 heartbeat IPC: 0.112316 cumulative IPC: 0.114577 (Simulation time: 101 hr 45 min 15 sec) 
 Total Blocks : 262144 Invalid Blocks : 0
Heartbeat CPU 7 instructions: 260000003 cycles: 593479894 heartbeat IPC: 0.112535 cumulative IPC: 0.114346 (Simulation time: 101 hr 52 min 49 sec) 
 Total Blocks : 262144 Invalid Blocks : 0
Heartbeat CPU 0 instructions: 270000003 cycles: 679212880 heartbeat IPC: 0.112813 cumulative IPC: 0.114406 (Simulation time: 108 hr 27 min 58 sec) 
 Total Blocks : 262144 Invalid Blocks : 0
Heartbeat CPU 1 instructions: 270000003 cycles: 679660900 heartbeat IPC: 0.112413 cumulative IPC: 0.114394 (Simulation time: 108 hr 29 min 59 sec) 
 Total Blocks : 262144 Invalid Blocks : 0
Heartbeat CPU 6 instructions: 270000003 cycles: 679898577 heartbeat IPC: 0.112698 cumulative IPC: 0.114495 (Simulation time: 108 hr 31 min 3 sec) 
 Total Blocks : 262144 Invalid Blocks : 0
Heartbeat CPU 5 instructions: 270000003 cycles: 680187814 heartbeat IPC: 0.112736 cumulative IPC: 0.114403 (Simulation time: 108 hr 32 min 25 sec) 
 Total Blocks : 262144 Invalid Blocks : 0
Heartbeat CPU 3 instructions: 270000003 cycles: 680495709 heartbeat IPC: 0.112614 cumulative IPC: 0.114287 (Simulation time: 108 hr 33 min 48 sec) 
 Total Blocks : 262144 Invalid Blocks : 0
Heartbeat CPU 2 instructions: 270000003 cycles: 680577658 heartbeat IPC: 0.112401 cumulative IPC: 0.114247 (Simulation time: 108 hr 34 min 10 sec) 
 Total Blocks : 262144 Invalid Blocks : 0
Heartbeat CPU 4 instructions: 270000003 cycles: 681168610 heartbeat IPC: 0.111935 cumulative IPC: 0.114191 (Simulation time: 108 hr 36 min 59 sec) 
 Total Blocks : 262144 Invalid Blocks : 0
Heartbeat CPU 7 instructions: 270000003 cycles: 682294063 heartbeat IPC: 0.112595 cumulative IPC: 0.114092 (Simulation time: 108 hr 42 min 22 sec) 
 Total Blocks : 262144 Invalid Blocks : 0
Heartbeat CPU 0 instructions: 280000000 cycles: 768977863 heartbeat IPC: 0.111402 cumulative IPC: 0.114021 (Simulation time: 115 hr 30 min 24 sec) 
 Total Blocks : 262144 Invalid Blocks : 0
Heartbeat CPU 1 instructions: 280000000 cycles: 769169165 heartbeat IPC: 0.111721 cumulative IPC: 0.114052 (Simulation time: 115 hr 31 min 20 sec) 
 Total Blocks : 262144 Invalid Blocks : 0
Heartbeat CPU 6 instructions: 280000000 cycles: 769508393 heartbeat IPC: 0.111595 cumulative IPC: 0.114124 (Simulation time: 115 hr 33 min 0 sec) 
 Total Blocks : 262144 Invalid Blocks : 0
Heartbeat CPU 5 instructions: 280000000 cycles: 769600648 heartbeat IPC: 0.111841 cumulative IPC: 0.114076 (Simulation time: 115 hr 33 min 26 sec) 
 Total Blocks : 262144 Invalid Blocks : 0
Heartbeat CPU 3 instructions: 280000000 cycles: 769937724 heartbeat IPC: 0.111804 cumulative IPC: 0.11397 (Simulation time: 115 hr 35 min 4 sec) 
 Total Blocks : 262144 Invalid Blocks : 0
Heartbeat CPU 2 instructions: 280000000 cycles: 770063741 heartbeat IPC: 0.111749 cumulative IPC: 0.113928 (Simulation time: 115 hr 35 min 41 sec) 
 Total Blocks : 262144 Invalid Blocks : 0
Heartbeat CPU 4 instructions: 280000000 cycles: 771056130 heartbeat IPC: 0.11125 cumulative IPC: 0.113815 (Simulation time: 115 hr 40 min 22 sec) 
 Total Blocks : 262144 Invalid Blocks : 0
Heartbeat CPU 7 instructions: 280000000 cycles: 772018516 heartbeat IPC: 0.111452 cumulative IPC: 0.113755 (Simulation time: 115 hr 45 min 0 sec) 
 Total Blocks : 262144 Invalid Blocks : 0
Heartbeat CPU 0 instructions: 290000002 cycles: 858965634 heartbeat IPC: 0.111126 cumulative IPC: 0.113691 (Simulation time: 122 hr 49 min 12 sec) 
 Total Blocks : 262144 Invalid Blocks : 0
Heartbeat CPU 1 instructions: 290000002 cycles: 859033508 heartbeat IPC: 0.111279 cumulative IPC: 0.113737 (Simulation time: 122 hr 49 min 32 sec) 
 Total Blocks : 262144 Invalid Blocks : 0
Heartbeat CPU 6 instructions: 290000000 cycles: 859292124 heartbeat IPC: 0.111379 cumulative IPC: 0.113812 (Simulation time: 122 hr 50 min 48 sec) 
 Total Blocks : 262144 Invalid Blocks : 0
Heartbeat CPU 5 instructions: 290000002 cycles: 859819084 heartbeat IPC: 0.110842 cumulative IPC: 0.113707 (Simulation time: 122 hr 53 min 25 sec) 
 Total Blocks : 262144 Invalid Blocks : 0
Heartbeat CPU 3 instructions: 290000002 cycles: 859918027 heartbeat IPC: 0.111135 cumulative IPC: 0.113648 (Simulation time: 122 hr 53 min 52 sec) 
 Total Blocks : 262144 Invalid Blocks : 0
Heartbeat CPU 2 instructions: 290000002 cycles: 860059901 heartbeat IPC: 0.111116 cumulative IPC: 0.113608 (Simulation time: 122 hr 54 min 35 sec) 
 Total Blocks : 262144 Invalid Blocks : 0
Heartbeat CPU 4 instructions: 290000002 cycles: 860876402 heartbeat IPC: 0.111333 cumulative IPC: 0.113533 (Simulation time: 122 hr 58 min 38 sec) 
 Total Blocks : 262144 Invalid Blocks : 0
Heartbeat CPU 7 instructions: 290000002 cycles: 861904436 heartbeat IPC: 0.111252 cumulative IPC: 0.113472 (Simulation time: 123 hr 3 min 48 sec) 
 Total Blocks : 262144 Invalid Blocks : 0
Heartbeat CPU 0 instructions: 300000002 cycles: 949964577 heartbeat IPC: 0.109891 cumulative IPC: 0.113299 (Simulation time: 130 hr 18 min 5 sec) 
 Total Blocks : 262144 Invalid Blocks : 0
Heartbeat CPU 1 instructions: 300000002 cycles: 950256986 heartbeat IPC: 0.109621 cumulative IPC: 0.113311 (Simulation time: 130 hr 19 min 33 sec) 
 Total Blocks : 262144 Invalid Blocks : 0
Heartbeat CPU 6 instructions: 300000002 cycles: 950431540 heartbeat IPC: 0.109722 cumulative IPC: 0.113389 (Simulation time: 130 hr 20 min 31 sec) 
 Total Blocks : 262144 Invalid Blocks : 0
Heartbeat CPU 5 instructions: 300000002 cycles: 950938231 heartbeat IPC: 0.109746 cumulative IPC: 0.113298 (Simulation time: 130 hr 23 min 6 sec) 
 Total Blocks : 262144 Invalid Blocks : 0
Heartbeat CPU 2 instructions: 300000002 cycles: 951178809 heartbeat IPC: 0.109747 cumulative IPC: 0.11321 (Simulation time: 130 hr 24 min 20 sec) 
 Total Blocks : 262144 Invalid Blocks : 0
Heartbeat CPU 3 instructions: 300000002 cycles: 951644549 heartbeat IPC: 0.10902 cumulative IPC: 0.113167 (Simulation time: 130 hr 26 min 37 sec) 
 Total Blocks : 262144 Invalid Blocks : 0
Heartbeat CPU 4 instructions: 300000002 cycles: 951919425 heartbeat IPC: 0.109838 cumulative IPC: 0.113153 (Simulation time: 130 hr 27 min 58 sec) 
 Total Blocks : 262144 Invalid Blocks : 0
Heartbeat CPU 7 instructions: 300000002 cycles: 953483544 heartbeat IPC: 0.109195 cumulative IPC: 0.113029 (Simulation time: 130 hr 35 min 52 sec) 
 Total Blocks : 262144 Invalid Blocks : 0
Heartbeat CPU 0 instructions: 310000002 cycles: 1040957069 heartbeat IPC: 0.109899 cumulative IPC: 0.112981 (Simulation time: 137 hr 59 min 5 sec) 
 Total Blocks : 262144 Invalid Blocks : 0
Heartbeat CPU 1 instructions: 310000000 cycles: 1041156719 heartbeat IPC: 0.110011 cumulative IPC: 0.113002 (Simulation time: 138 hr 0 min 6 sec) 
 Total Blocks : 262144 Invalid Blocks : 0
Heartbeat CPU 6 instructions: 310000000 cycles: 1041424354 heartbeat IPC: 0.109899 cumulative IPC: 0.113063 (Simulation time: 138 hr 1 min 28 sec) 
 Total Blocks : 262144 Invalid Blocks : 0
Heartbeat CPU 5 instructions: 310000000 cycles: 1041837207 heartbeat IPC: 0.110012 cumulative IPC: 0.112991 (Simulation time: 138 hr 3 min 37 sec) 
 Total Blocks : 262144 Invalid Blocks : 0
Heartbeat CPU 2 instructions: 310000000 cycles: 1042281733 heartbeat IPC: 0.109766 cumulative IPC: 0.112887 (Simulation time: 138 hr 5 min 53 sec) 
 Total Blocks : 262144 Invalid Blocks : 0
Heartbeat CPU 4 instructions: 310000000 cycles: 1042910460 heartbeat IPC: 0.109901 cumulative IPC: 0.112849 (Simulation time: 138 hr 9 min 8 sec) 
 Total Blocks : 262144 Invalid Blocks : 0
Heartbeat CPU 3 instructions: 310000003 cycles: 1043488945 heartbeat IPC: 0.10888 cumulative IPC: 0.112763 (Simulation time: 138 hr 12 min 10 sec) 
 Total Blocks : 262144 Invalid Blocks : 0
Heartbeat CPU 7 instructions: 310000000 cycles: 1044603876 heartbeat IPC: 0.109745 cumulative IPC: 0.112722 (Simulation time: 138 hr 17 min 57 sec) 
 Total Blocks : 262144 Invalid Blocks : 0
Heartbeat CPU 0 instructions: 320000000 cycles: 1132119395 heartbeat IPC: 0.109694 cumulative IPC: 0.112699 (Simulation time: 145 hr 53 min 29 sec) 
 Total Blocks : 262144 Invalid Blocks : 0
Heartbeat CPU 1 instructions: 320000000 cycles: 1132174239 heartbeat IPC: 0.109869 cumulative IPC: 0.112734 (Simulation time: 145 hr 53 min 46 sec) 
 Total Blocks : 262144 Invalid Blocks : 0
Heartbeat CPU 6 instructions: 320000000 cycles: 1132578449 heartbeat IPC: 0.109704 cumulative IPC: 0.112775 (Simulation time: 145 hr 55 min 59 sec) 
 Total Blocks : 262144 Invalid Blocks : 0
Heartbeat CPU 5 instructions: 320000000 cycles: 1133423388 heartbeat IPC: 0.109187 cumulative IPC: 0.112664 (Simulation time: 146 hr 0 min 30 sec) 
 Total Blocks : 262144 Invalid Blocks : 0
Heartbeat CPU 2 instructions: 320000000 cycles: 1133590791 heartbeat IPC: 0.109518 cumulative IPC: 0.112598 (Simulation time: 146 hr 1 min 22 sec) 
 Total Blocks : 262144 Invalid Blocks : 0
Heartbeat CPU 4 instructions: 320000000 cycles: 1134083438 heartbeat IPC: 0.109682 cumulative IPC: 0.112578 (Simulation time: 146 hr 4 min 1 sec) 
 Total Blocks : 262144 Invalid Blocks : 0
Heartbeat CPU 3 instructions: 320000000 cycles: 1134667182 heartbeat IPC: 0.109675 cumulative IPC: 0.112499 (Simulation time: 146 hr 7 min 5 sec) 
 Total Blocks : 262144 Invalid Blocks : 0
Heartbeat CPU 7 instructions: 320000000 cycles: 1137200463 heartbeat IPC: 0.107995 cumulative IPC: 0.112313 (Simulation time: 146 hr 16 min 22 sec) 
 Total Blocks : 262144 Invalid Blocks : 0
Heartbeat CPU 1 instructions: 330000000 cycles: 1223548190 heartbeat IPC: 0.10944 cumulative IPC: 0.112474 (Simulation time: 154 hr 5 min 43 sec) 
 Total Blocks : 262144 Invalid Blocks : 0
Heartbeat CPU 0 instructions: 330000000 cycles: 1223779657 heartbeat IPC: 0.109099 cumulative IPC: 0.112413 (Simulation time: 154 hr 7 min 2 sec) 
 Total Blocks : 262144 Invalid Blocks : 0
Heartbeat CPU 6 instructions: 330000000 cycles: 1223975178 heartbeat IPC: 0.109413 cumulative IPC: 0.112509 (Simulation time: 154 hr 8 min 12 sec) 
 Total Blocks : 262144 Invalid Blocks : 0
Heartbeat CPU 5 instructions: 330000000 cycles: 1224558744 heartbeat IPC: 0.109727 cumulative IPC: 0.112432 (Simulation time: 154 hr 11 min 25 sec) 
 Total Blocks : 262144 Invalid Blocks : 0
Heartbeat CPU 2 instructions: 330000000 cycles: 1224809637 heartbeat IPC: 0.109626 cumulative IPC: 0.112364 (Simulation time: 154 hr 12 min 53 sec) 
 Total Blocks : 262144 Invalid Blocks : 0
Heartbeat CPU 4 instructions: 330000000 cycles: 1225380515 heartbeat IPC: 0.109533 cumulative IPC: 0.112337 (Simulation time: 154 hr 16 min 4 sec) 
 Total Blocks : 262144 Invalid Blocks : 0
Heartbeat CPU 3 instructions: 330000000 cycles: 1226281963 heartbeat IPC: 0.109153 cumulative IPC: 0.112234 (Simulation time: 154 hr 21 min 3 sec) 
 Total Blocks : 262144 Invalid Blocks : 0
Heartbeat CPU 7 instructions: 330000000 cycles: 1228516251 heartbeat IPC: 0.10951 cumulative IPC: 0.112092 (Simulation time: 154 hr 29 min 10 sec) 
 Total Blocks : 262144 Invalid Blocks : 0
Heartbeat CPU 1 instructions: 340000000 cycles: 1315091979 heartbeat IPC: 0.109237 cumulative IPC: 0.112236 (Simulation time: 162 hr 33 min 46 sec) 
 Total Blocks : 262144 Invalid Blocks : 0
Heartbeat CPU 0 instructions: 340000000 cycles: 1315401986 heartbeat IPC: 0.109144 cumulative IPC: 0.112173 (Simulation time: 162 hr 36 min 14 sec) 
 Total Blocks : 262144 Invalid Blocks : 0
Heartbeat CPU 6 instructions: 340000000 cycles: 1315648610 heartbeat IPC: 0.109083 cumulative IPC: 0.112257 (Simulation time: 162 hr 38 min 12 sec) 
 Total Blocks : 262144 Invalid Blocks : 0
Heartbeat CPU 5 instructions: 340000000 cycles: 1316226428 heartbeat IPC: 0.10909 cumulative IPC: 0.112187 (Simulation time: 162 hr 41 min 48 sec) 
 Total Blocks : 262144 Invalid Blocks : 0
Heartbeat CPU 2 instructions: 340000000 cycles: 1316458928 heartbeat IPC: 0.109112 cumulative IPC: 0.112125 (Simulation time: 162 hr 43 min 16 sec) 
 Total Blocks : 262144 Invalid Blocks : 0
Heartbeat CPU 4 instructions: 340000000 cycles: 1316853674 heartbeat IPC: 0.109322 cumulative IPC: 0.112116 (Simulation time: 162 hr 45 min 35 sec) 
 Total Blocks : 262144 Invalid Blocks : 0
Heartbeat CPU 3 instructions: 340000000 cycles: 1318250944 heartbeat IPC: 0.108732 cumulative IPC: 0.111976 (Simulation time: 162 hr 51 min 24 sec) 
 Total Blocks : 262144 Invalid Blocks : 0
Heartbeat CPU 7 instructions: 340000000 cycles: 1319810356 heartbeat IPC: 0.109536 cumulative IPC: 0.111905 (Simulation time: 162 hr 59 min 51 sec) 
 Total Blocks : 262144 Invalid Blocks : 0
Heartbeat CPU 1 instructions: 350000000 cycles: 1407161619 heartbeat IPC: 0.108613 cumulative IPC: 0.111987 (Simulation time: 171 hr 18 min 45 sec) 
 Total Blocks : 262144 Invalid Blocks : 0
Heartbeat CPU 0 instructions: 350000000 cycles: 1407486991 heartbeat IPC: 0.108595 cumulative IPC: 0.111927 (Simulation time: 171 hr 21 min 47 sec) 
 Total Blocks : 262144 Invalid Blocks : 0
Heartbeat CPU 6 instructions: 350000003 cycles: 1407618347 heartbeat IPC: 0.108731 cumulative IPC: 0.112015 (Simulation time: 171 hr 22 min 47 sec) 
 Total Blocks : 262144 Invalid Blocks : 0
Heartbeat CPU 5 instructions: 350000003 cycles: 1408135048 heartbeat IPC: 0.108804 cumulative IPC: 0.111955 (Simulation time: 171 hr 26 min 56 sec) 
 Total Blocks : 262144 Invalid Blocks : 0
Heartbeat CPU 2 instructions: 350000000 cycles: 1408505369 heartbeat IPC: 0.108641 cumulative IPC: 0.111886 (Simulation time: 171 hr 29 min 32 sec) 
 Total Blocks : 262144 Invalid Blocks : 0
Heartbeat CPU 4 instructions: 350000000 cycles: 1409450245 heartbeat IPC: 0.107995 cumulative IPC: 0.111832 (Simulation time: 171 hr 35 min 20 sec) 
 Total Blocks : 262144 Invalid Blocks : 0
Heartbeat CPU 3 instructions: 350000000 cycles: 1410044782 heartbeat IPC: 0.10894 cumulative IPC: 0.111769 (Simulation time: 171 hr 38 min 52 sec) 
 Total Blocks : 262144 Invalid Blocks : 0
Heartbeat CPU 7 instructions: 350000000 cycles: 1410923926 heartbeat IPC: 0.109753 cumulative IPC: 0.111759 (Simulation time: 171 hr 43 min 59 sec) 
 Total Blocks : 262144 Invalid Blocks : 0
Heartbeat CPU 1 instructions: 360000001 cycles: 1497859053 heartbeat IPC: 0.110257 cumulative IPC: 0.111877 (Simulation time: 180 hr 17 min 0 sec) 
 Total Blocks : 262144 Invalid Blocks : 0
Heartbeat CPU 0 instructions: 360000001 cycles: 1498408828 heartbeat IPC: 0.109985 cumulative IPC: 0.111803 (Simulation time: 180 hr 20 min 19 sec) 
 Total Blocks : 262144 Invalid Blocks : 0
Heartbeat CPU 6 instructions: 360000002 cycles: 1499210501 heartbeat IPC: 0.10918 cumulative IPC: 0.111833 (Simulation time: 180 hr 23 min 49 sec) 
 Total Blocks : 262144 Invalid Blocks : 0
Heartbeat CPU 5 instructions: 360000001 cycles: 1500038405 heartbeat IPC: 0.10881 cumulative IPC: 0.111753 (Simulation time: 180 hr 26 min 48 sec) 
 Total Blocks : 262144 Invalid Blocks : 0
Heartbeat CPU 2 instructions: 360000003 cycles: 1501034658 heartbeat IPC: 0.108074 cumulative IPC: 0.111639 (Simulation time: 180 hr 30 min 47 sec) 
 Total Blocks : 262144 Invalid Blocks : 0
Heartbeat CPU 4 instructions: 360000003 cycles: 1501798837 heartbeat IPC: 0.108285 cumulative IPC: 0.111603 (Simulation time: 180 hr 37 min 17 sec) 
 Total Blocks : 262144 Invalid Blocks : 0
Heartbeat CPU 3 instructions: 360000003 cycles: 1502158003 heartbeat IPC: 0.108562 cumulative IPC: 0.111563 (Simulation time: 180 hr 40 min 17 sec) 
 Total Blocks : 262144 Invalid Blocks : 0
Heartbeat CPU 7 instructions: 360000003 cycles: 1502557468 heartbeat IPC: 0.10913 cumulative IPC: 0.111591 (Simulation time: 180 hr 43 min 43 sec) 
 Total Blocks : 262144 Invalid Blocks : 0
Heartbeat CPU 1 instructions: 370000002 cycles: 1589939391 heartbeat IPC: 0.108601 cumulative IPC: 0.111679 (Simulation time: 189 hr 31 min 54 sec) 
 Total Blocks : 262144 Invalid Blocks : 0
Heartbeat CPU 0 instructions: 370000003 cycles: 1590554778 heartbeat IPC: 0.108524 cumulative IPC: 0.111605 (Simulation time: 189 hr 37 min 10 sec) 
 Total Blocks : 262144 Invalid Blocks : 0
Heartbeat CPU 6 instructions: 370000000 cycles: 1590845413 heartbeat IPC: 0.109129 cumulative IPC: 0.111671 (Simulation time: 189 hr 39 min 43 sec) 
 Total Blocks : 262144 Invalid Blocks : 0
Heartbeat CPU 5 instructions: 370000003 cycles: 1591036152 heartbeat IPC: 0.109893 cumulative IPC: 0.111642 (Simulation time: 189 hr 41 min 4 sec) 
 Total Blocks : 262144 Invalid Blocks : 0
Heartbeat CPU 2 instructions: 370000000 cycles: 1591530848 heartbeat IPC: 0.110502 cumulative IPC: 0.111572 (Simulation time: 189 hr 44 min 20 sec) 
 Total Blocks : 262144 Invalid Blocks : 0
Heartbeat CPU 4 instructions: 370000003 cycles: 1592832864 heartbeat IPC: 0.109849 cumulative IPC: 0.111498 (Simulation time: 189 hr 52 min 31 sec) 
 Total Blocks : 262144 Invalid Blocks : 0
Heartbeat CPU 3 instructions: 370000000 cycles: 1593424889 heartbeat IPC: 0.109569 cumulative IPC: 0.111443 (Simulation time: 189 hr 56 min 13 sec) 
 Total Blocks : 262144 Invalid Blocks : 0
Heartbeat CPU 7 instructions: 370000000 cycles: 1593848001 heartbeat IPC: 0.10954 cumulative IPC: 0.111469 (Simulation time: 189 hr 58 min 49 sec) 
 Total Blocks : 262144 Invalid Blocks : 0
Heartbeat CPU 1 instructions: 380000003 cycles: 1681229022 heartbeat IPC: 0.109541 cumulative IPC: 0.111558 (Simulation time: 198 hr 57 min 51 sec) 
 Total Blocks : 262144 Invalid Blocks : 0
Heartbeat CPU 5 instructions: 380000003 cycles: 1682414468 heartbeat IPC: 0.109435 cumulative IPC: 0.111517 (Simulation time: 199 hr 7 min 8 sec) 
 Total Blocks : 262144 Invalid Blocks : 0
Heartbeat CPU 0 instructions: 380000000 cycles: 1682443947 heartbeat IPC: 0.108827 cumulative IPC: 0.111447 (Simulation time: 199 hr 7 min 21 sec) 
 Total Blocks : 262144 Invalid Blocks : 0
Heartbeat CPU 6 instructions: 380000003 cycles: 1682580773 heartbeat IPC: 0.109009 cumulative IPC: 0.111519 (Simulation time: 199 hr 8 min 14 sec) 
 Total Blocks : 262144 Invalid Blocks : 0
Heartbeat CPU 2 instructions: 380000000 cycles: 1683069570 heartbeat IPC: 0.109243 cumulative IPC: 0.11144 (Simulation time: 199 hr 11 min 29 sec) 
 Total Blocks : 262144 Invalid Blocks : 0
Heartbeat CPU 4 instructions: 380000000 cycles: 1684082263 heartbeat IPC: 0.10959 cumulative IPC: 0.111391 (Simulation time: 199 hr 17 min 57 sec) 
 Total Blocks : 262144 Invalid Blocks : 0
Heartbeat CPU 3 instructions: 380000003 cycles: 1685014349 heartbeat IPC: 0.109183 cumulative IPC: 0.111315 (Simulation time: 199 hr 23 min 52 sec) 
 Total Blocks : 262144 Invalid Blocks : 0
Heartbeat CPU 7 instructions: 380000000 cycles: 1685209730 heartbeat IPC: 0.109455 cumulative IPC: 0.111355 (Simulation time: 199 hr 25 min 7 sec) 
 Total Blocks : 262144 Invalid Blocks : 0
Heartbeat CPU 1 instructions: 390000002 cycles: 1772542684 heartbeat IPC: 0.109513 cumulative IPC: 0.111448 (Simulation time: 208 hr 39 min 56 sec) 
 Total Blocks : 262144 Invalid Blocks : 0
Heartbeat CPU 0 instructions: 390000002 cycles: 1774012255 heartbeat IPC: 0.109208 cumulative IPC: 0.111326 (Simulation time: 208 hr 49 min 35 sec) 
 Total Blocks : 262144 Invalid Blocks : 0
Heartbeat CPU 6 instructions: 390000002 cycles: 1774303741 heartbeat IPC: 0.109024 cumulative IPC: 0.111385 (Simulation time: 208 hr 51 min 28 sec) 
 Total Blocks : 262144 Invalid Blocks : 0
Heartbeat CPU 5 instructions: 390000002 cycles: 1774549124 heartbeat IPC: 0.108537 cumulative IPC: 0.111356 (Simulation time: 208 hr 53 min 6 sec) 
 Total Blocks : 262144 Invalid Blocks : 0
Heartbeat CPU 2 instructions: 390000002 cycles: 1774643604 heartbeat IPC: 0.109201 cumulative IPC: 0.11132 (Simulation time: 208 hr 53 min 42 sec) 
 Total Blocks : 262144 Invalid Blocks : 0
Heartbeat CPU 4 instructions: 390000002 cycles: 1776169581 heartbeat IPC: 0.108593 cumulative IPC: 0.11124 (Simulation time: 209 hr 1 min 8 sec) 
 Total Blocks : 262144 Invalid Blocks : 0
Heartbeat CPU 3 instructions: 390000002 cycles: 1777456805 heartbeat IPC: 0.108175 cumulative IPC: 0.111145 (Simulation time: 209 hr 6 min 32 sec) 
 Total Blocks : 262144 Invalid Blocks : 0
Heartbeat CPU 7 instructions: 390000001 cycles: 1777716047 heartbeat IPC: 0.108101 cumulative IPC: 0.111179 (Simulation time: 209 hr 8 min 46 sec) 
 Total Blocks : 262144 Invalid Blocks : 0
Heartbeat CPU 1 instructions: 400000001 cycles: 1864249475 heartbeat IPC: 0.109043 cumulative IPC: 0.111325 (Simulation time: 218 hr 36 min 11 sec) 
 Total Blocks : 262144 Invalid Blocks : 0
Finished CPU 1 instructions: 200000002 cycles: 1796532379 cumulative IPC: 0.111326 (Simulation time: 218 hr 43 min 14 sec) 
Heartbeat CPU 0 instructions: 400000001 cycles: 1865827599 heartbeat IPC: 0.108914 cumulative IPC: 0.111203 (Simulation time: 218 hr 46 min 52 sec) 
 Total Blocks : 262144 Invalid Blocks : 0
Heartbeat CPU 6 instructions: 400000000 cycles: 1865973719 heartbeat IPC: 0.109087 cumulative IPC: 0.111268 (Simulation time: 218 hr 47 min 55 sec) 
 Total Blocks : 262144 Invalid Blocks : 0
Finished CPU 6 instructions: 200000002 cycles: 1797471324 cumulative IPC: 0.111267 (Simulation time: 218 hr 49 min 35 sec) 
Heartbeat CPU 2 instructions: 400000000 cycles: 1866432517 heartbeat IPC: 0.108946 cumulative IPC: 0.111198 (Simulation time: 218 hr 50 min 59 sec) 
 Total Blocks : 262144 Invalid Blocks : 0
Heartbeat CPU 5 instructions: 400000000 cycles: 1866436183 heartbeat IPC: 0.108829 cumulative IPC: 0.111227 (Simulation time: 218 hr 50 min 59 sec) 
 Total Blocks : 262144 Invalid Blocks : 0
Finished CPU 5 instructions: 200000003 cycles: 1798138653 cumulative IPC: 0.111226 (Simulation time: 218 hr 53 min 59 sec) 
Finished CPU 0 instructions: 200000001 cycles: 1798516408 cumulative IPC: 0.111203 (Simulation time: 218 hr 56 min 29 sec) 
Finished CPU 2 instructions: 200000001 cycles: 1798602254 cumulative IPC: 0.111197 (Simulation time: 218 hr 57 min 3 sec) 
Heartbeat CPU 4 instructions: 400000001 cycles: 1867762000 heartbeat IPC: 0.109179 cumulative IPC: 0.111135 (Simulation time: 218 hr 59 min 44 sec) 
 Total Blocks : 262144 Invalid Blocks : 0
Finished CPU 4 instructions: 200000001 cycles: 1799618431 cumulative IPC: 0.111135 (Simulation time: 219 hr 3 min 49 sec) 
Heartbeat CPU 3 instructions: 400000001 cycles: 1868476354 heartbeat IPC: 0.109866 cumulative IPC: 0.111081 (Simulation time: 219 hr 4 min 36 sec) 
 Total Blocks : 262144 Invalid Blocks : 0
Heartbeat CPU 7 instructions: 400000001 cycles: 1868954484 heartbeat IPC: 0.109603 cumulative IPC: 0.111099 (Simulation time: 219 hr 7 min 46 sec) 
 Total Blocks : 262144 Invalid Blocks : 0
Finished CPU 7 instructions: 200000002 cycles: 1800200075 cumulative IPC: 0.111099 (Simulation time: 219 hr 7 min 46 sec) 
Finished CPU 3 instructions: 200000002 cycles: 1800515829 cumulative IPC: 0.111079 (Simulation time: 219 hr 9 min 48 sec) 

CPU 0 Branch Prediction Accuracy: 99.9619% MPKI: 0.0423936 Average ROB Occupancy at Mispredict: 187.59

CPU 1 Branch Prediction Accuracy: 99.9619% MPKI: 0.0423871 Average ROB Occupancy at Mispredict: 187.509

CPU 2 Branch Prediction Accuracy: 99.9619% MPKI: 0.0423994 Average ROB Occupancy at Mispredict: 187.645

CPU 3 Branch Prediction Accuracy: 99.9619% MPKI: 0.0424168 Average ROB Occupancy at Mispredict: 187.501

CPU 4 Branch Prediction Accuracy: 99.9619% MPKI: 0.0423994 Average ROB Occupancy at Mispredict: 187.476

CPU 5 Branch Prediction Accuracy: 99.9619% MPKI: 0.0424281 Average ROB Occupancy at Mispredict: 187.536

CPU 6 Branch Prediction Accuracy: 99.9619% MPKI: 0.0424184 Average ROB Occupancy at Mispredict: 187.6

CPU 7 Branch Prediction Accuracy: 99.9619% MPKI: 0.0424278 Average ROB Occupancy at Mispredict: 187.645

ChampSim completed all CPUs

Total Simulation Statistics (not including warmup)

CPU 0 cumulative IPC: 0.111204 instructions: 200224073 cycles: 1800515829
ITLB TOTAL     ACCESS: 46353609  HIT: 46353609  MISS:     0  HIT %:   100  MISS %:     0  AVERAGE MISS PENALTY: 0
ITLB LOAD      ACCESS: 46353609  HIT: 46353609  MISS:     0  HIT %:   100  MISS %:     0  AVERAGE MISS PENALTY: 0
ITLB RFO       ACCESS:     0  HIT:     0  MISS:     0  HIT %:     0  MISS %:     0  AVERAGE MISS PENALTY: 0
ITLB PREFETCH  ACCESS:     0  HIT:     0  MISS:     0  HIT %:     0  MISS %:     0  AVERAGE MISS PENALTY: 0
ITLB WRITEBACK ACCESS:     0  HIT:     0  MISS:     0  HIT %:     0  MISS %:     0  AVERAGE MISS PENALTY: 0

DTLB TOTAL     ACCESS: 36840011  HIT: 32069665  MISS: 4770346  HIT %: 87.0512  MISS %: 12.9488  AVERAGE MISS PENALTY: 153.591
DTLB LOAD      ACCESS: 27961303  HIT: 23199631  MISS: 4761672  HIT %: 82.9705  MISS %: 17.0295  AVERAGE MISS PENALTY: 153.615
DTLB RFO       ACCESS: 8878708  HIT: 8870034  MISS:  8674  HIT %: 99.9023  MISS %: 0.0976944  AVERAGE MISS PENALTY: 140.781
DTLB PREFETCH  ACCESS:     0  HIT:     0  MISS:     0  HIT %:     0  MISS %:     0  AVERAGE MISS PENALTY: 0
DTLB WRITEBACK ACCESS:     0  HIT:     0  MISS:     0  HIT %:     0  MISS %:     0  AVERAGE MISS PENALTY: 0

STLB TOTAL     ACCESS: 4770347  HIT:    77  MISS: 4770270  HIT %: 0.00161414  MISS %: 99.9984  AVERAGE MISS PENALTY: 100
STLB LOAD      ACCESS: 4761673  HIT:    77  MISS: 4761596  HIT %: 0.00161708  MISS %: 99.9984  AVERAGE MISS PENALTY: 100
STLB RFO       ACCESS:  8674  HIT:     0  MISS:  8674  HIT %:     0  MISS %:   100  AVERAGE MISS PENALTY: 100
STLB PREFETCH  ACCESS:     0  HIT:     0  MISS:     0  HIT %:     0  MISS %:     0  AVERAGE MISS PENALTY: 0
STLB WRITEBACK ACCESS:     0  HIT:     0  MISS:     0  HIT %:     0  MISS %:     0  AVERAGE MISS PENALTY: 0

L1D TOTAL     ACCESS: 41091687  HIT: 27978779  MISS: 13112908  HIT %: 68.0887  MISS %: 31.9113  AVERAGE MISS PENALTY: 998814
L1D LOAD      ACCESS: 29900101  HIT: 19495849  MISS: 10404252  HIT %: 65.2033  MISS %: 34.7967  AVERAGE MISS PENALTY: 1.25415e+06
L1D RFO       ACCESS: 8878809  HIT: 8324779  MISS: 554030  HIT %: 93.7601  MISS %: 6.23991  AVERAGE MISS PENALTY: 86348.1
L1D PREFETCH  ACCESS: 2312777  HIT: 158151  MISS: 2154626  HIT %: 6.83814  MISS %: 93.1619  AVERAGE MISS PENALTY: 468.559
L1D WRITEBACK ACCESS:     0  HIT:     0  MISS:     0  HIT %:     0  MISS %:     0  AVERAGE MISS PENALTY: 0

L1I TOTAL     ACCESS: 55494161  HIT: 55494161  MISS:     0  HIT %:   100  MISS %:     0  AVERAGE MISS PENALTY: 0
L1I LOAD      ACCESS: 55494161  HIT: 55494161  MISS:     0  HIT %:   100  MISS %:     0  AVERAGE MISS PENALTY: 0
L1I RFO       ACCESS:     0  HIT:     0  MISS:     0  HIT %:     0  MISS %:     0  AVERAGE MISS PENALTY: 0
L1I PREFETCH  ACCESS:     0  HIT:     0  MISS:     0  HIT %:     0  MISS %:     0  AVERAGE MISS PENALTY: 0
L1I WRITEBACK ACCESS:     0  HIT:     0  MISS:     0  HIT %:     0  MISS %:     0  AVERAGE MISS PENALTY: 0

L2C TOTAL     ACCESS: 18640249  HIT: 6800900  MISS: 11839349  HIT %: 36.485  MISS %: 63.515  AVERAGE MISS PENALTY: 1.53966e+06
L2C LOAD      ACCESS: 10403176  HIT: 1858027  MISS: 8545149  HIT %: 17.8602  MISS %: 82.1398  AVERAGE MISS PENALTY: 2.13303e+06
L2C RFO       ACCESS: 553994  HIT: 257217  MISS: 296777  HIT %: 46.4296  MISS %: 53.5704  AVERAGE MISS PENALTY: 134.051
L2C PREFETCH  ACCESS: 3243709  HIT: 246286  MISS: 2997423  HIT %: 7.59273  MISS %: 92.4073  AVERAGE MISS PENALTY: 504.766
L2C WRITEBACK ACCESS: 4439370  HIT: 4439370  MISS:     0  HIT %:   100  MISS %:     0  AVERAGE MISS PENALTY: 0


LLC0 TOTAL     ACCESS: 2059499  HIT: 950927  MISS: 1108572  HIT %: 46.1727  MISS %: 53.8273  AVERAGE MISS PENALTY: 397.758
LLC0 LOAD      ACCESS: 1072960  HIT: 395845  MISS: 677115  HIT %: 36.8928  MISS %: 63.1072  AVERAGE MISS PENALTY: 390.444
LLC0 RFO       ACCESS: 38089  HIT: 31783  MISS:  6306  HIT %: 83.444  MISS %: 16.556  AVERAGE MISS PENALTY: 417.323
LLC0 PREFETCH  ACCESS: 393523  HIT: 66862  MISS: 326661  HIT %: 16.9906  MISS %: 83.0094  AVERAGE MISS PENALTY: 532.467
LLC0 WRITEBACK ACCESS: 554927  HIT: 456437  MISS: 98490  HIT %: 82.2517  MISS %: 17.7483  AVERAGE MISS PENALTY: 0

LLC1 TOTAL     ACCESS: 2083214  HIT: 967165  MISS: 1116049  HIT %: 46.4266  MISS %: 53.5734  AVERAGE MISS PENALTY: 399.352
LLC1 LOAD      ACCESS: 1083934  HIT: 409926  MISS: 674008  HIT %: 37.8184  MISS %: 62.1816  AVERAGE MISS PENALTY: 386.047
LLC1 RFO       ACCESS: 38829  HIT: 32416  MISS:  6413  HIT %: 83.484  MISS %: 16.516  AVERAGE MISS PENALTY: 419.73
LLC1 PREFETCH  ACCESS: 405511  HIT: 67530  MISS: 337981  HIT %: 16.6531  MISS %: 83.3469  AVERAGE MISS PENALTY: 540.877
LLC1 WRITEBACK ACCESS: 554940  HIT: 457293  MISS: 97647  HIT %: 82.404  MISS %: 17.596  AVERAGE MISS PENALTY: 0

LLC2 TOTAL     ACCESS: 2113459  HIT: 990840  MISS: 1122619  HIT %: 46.8824  MISS %: 53.1176  AVERAGE MISS PENALTY: 407.657
LLC2 LOAD      ACCESS: 1105639  HIT: 428991  MISS: 676648  HIT %: 38.8003  MISS %: 61.1997  AVERAGE MISS PENALTY: 397.299
LLC2 RFO       ACCESS: 39784  HIT: 33149  MISS:  6635  HIT %: 83.3224  MISS %: 16.6776  AVERAGE MISS PENALTY: 428.011
LLC2 PREFETCH  ACCESS: 413118  HIT: 69184  MISS: 343934  HIT %: 16.7468  MISS %: 83.2532  AVERAGE MISS PENALTY: 540.721
LLC2 WRITEBACK ACCESS: 554918  HIT: 459516  MISS: 95402  HIT %: 82.8079  MISS %: 17.1921  AVERAGE MISS PENALTY: 0

LLC3 TOTAL     ACCESS: 1996326  HIT: 940821  MISS: 1055505  HIT %: 47.1276  MISS %: 52.8724  AVERAGE MISS PENALTY: 405.048
LLC3 LOAD      ACCESS: 1047248  HIT: 386699  MISS: 660549  HIT %: 36.9253  MISS %: 63.0747  AVERAGE MISS PENALTY: 389.606
LLC3 RFO       ACCESS: 36074  HIT: 30341  MISS:  5733  HIT %: 84.1077  MISS %: 15.8923  AVERAGE MISS PENALTY: 432.33
LLC3 PREFETCH  ACCESS: 358070  HIT: 65503  MISS: 292567  HIT %: 18.2934  MISS %: 81.7066  AVERAGE MISS PENALTY: 573.194
LLC3 WRITEBACK ACCESS: 554934  HIT: 458278  MISS: 96656  HIT %: 82.5824  MISS %: 17.4176  AVERAGE MISS PENALTY: 0

LLC4 TOTAL     ACCESS: 2001992  HIT: 941189  MISS: 1060803  HIT %: 47.0126  MISS %: 52.9874  AVERAGE MISS PENALTY: 396.792
LLC4 LOAD      ACCESS: 1050152  HIT: 389145  MISS: 661007  HIT %: 37.0561  MISS %: 62.9439  AVERAGE MISS PENALTY: 382.663
LLC4 RFO       ACCESS: 35634  HIT: 29896  MISS:  5738  HIT %: 83.8974  MISS %: 16.1026  AVERAGE MISS PENALTY: 422.349
LLC4 PREFETCH  ACCESS: 361261  HIT: 64384  MISS: 296877  HIT %: 17.822  MISS %: 82.178  AVERAGE MISS PENALTY: 557.644
LLC4 WRITEBACK ACCESS: 554945  HIT: 457764  MISS: 97181  HIT %: 82.4882  MISS %: 17.5118  AVERAGE MISS PENALTY: 0

LLC5 TOTAL     ACCESS: 2005309  HIT: 938788  MISS: 1066521  HIT %: 46.8151  MISS %: 53.1849  AVERAGE MISS PENALTY: 397.826
LLC5 LOAD      ACCESS: 1048476  HIT: 386779  MISS: 661697  HIT %: 36.8896  MISS %: 63.1104  AVERAGE MISS PENALTY: 382.299
LLC5 RFO       ACCESS: 35985  HIT: 30193  MISS:  5792  HIT %: 83.9044  MISS %: 16.0956  AVERAGE MISS PENALTY: 424.553
LLC5 PREFETCH  ACCESS: 365908  HIT: 63942  MISS: 301966  HIT %: 17.4749  MISS %: 82.5251  AVERAGE MISS PENALTY: 559.216
LLC5 WRITEBACK ACCESS: 554940  HIT: 457874  MISS: 97066  HIT %: 82.5087  MISS %: 17.4913  AVERAGE MISS PENALTY: 0

LLC6 TOTAL     ACCESS: 1996200  HIT: 932913  MISS: 1063287  HIT %: 46.7344  MISS %: 53.2656  AVERAGE MISS PENALTY: 400.641
LLC6 LOAD      ACCESS: 1045585  HIT: 384452  MISS: 661133  HIT %: 36.7691  MISS %: 63.2309  AVERAGE MISS PENALTY: 387.971
LLC6 RFO       ACCESS: 35831  HIT: 30109  MISS:  5722  HIT %: 84.0306  MISS %: 15.9694  AVERAGE MISS PENALTY: 422.135
LLC6 PREFETCH  ACCESS: 359837  HIT: 60524  MISS: 299313  HIT %: 16.8198  MISS %: 83.1802  AVERAGE MISS PENALTY: 558.213
LLC6 WRITEBACK ACCESS: 554947  HIT: 457828  MISS: 97119  HIT %: 82.4994  MISS %: 17.5006  AVERAGE MISS PENALTY: 0

LLC7 TOTAL     ACCESS: 2022857  HIT: 963770  MISS: 1059087  HIT %: 47.644  MISS %: 52.356  AVERAGE MISS PENALTY: 401.933
LLC7 LOAD      ACCESS: 1078905  HIT: 412296  MISS: 666609  HIT %: 38.2143  MISS %: 61.7857  AVERAGE MISS PENALTY: 388.198
LLC7 RFO       ACCESS: 36551  HIT: 30755  MISS:  5796  HIT %: 84.1427  MISS %: 15.8573  AVERAGE MISS PENALTY: 422.375
LLC7 PREFETCH  ACCESS: 352445  HIT: 61952  MISS: 290493  HIT %: 17.5778  MISS %: 82.4222  AVERAGE MISS PENALTY: 566.131
LLC7 WRITEBACK ACCESS: 554956  HIT: 458767  MISS: 96189  HIT %: 82.6673  MISS %: 17.3327  AVERAGE MISS PENALTY: 0

Total Rob stall cycles : 	1736164836
Total Load Rob Stall cycles : 	1540951951
Average Rob Stall cycles : 	 70
Average Load Rob Stall cycles : 	 213

CPU 1 cumulative IPC: 0.111324 instructions: 200439921 cycles: 1800515829
ITLB TOTAL     ACCESS: 46403505  HIT: 46403505  MISS:     0  HIT %:   100  MISS %:     0  AVERAGE MISS PENALTY: 0
ITLB LOAD      ACCESS: 46403505  HIT: 46403505  MISS:     0  HIT %:   100  MISS %:     0  AVERAGE MISS PENALTY: 0
ITLB RFO       ACCESS:     0  HIT:     0  MISS:     0  HIT %:     0  MISS %:     0  AVERAGE MISS PENALTY: 0
ITLB PREFETCH  ACCESS:     0  HIT:     0  MISS:     0  HIT %:     0  MISS %:     0  AVERAGE MISS PENALTY: 0
ITLB WRITEBACK ACCESS:     0  HIT:     0  MISS:     0  HIT %:     0  MISS %:     0  AVERAGE MISS PENALTY: 0

DTLB TOTAL     ACCESS: 36881421  HIT: 32105972  MISS: 4775449  HIT %: 87.0519  MISS %: 12.9481  AVERAGE MISS PENALTY: 153.604
DTLB LOAD      ACCESS: 27993135  HIT: 23226370  MISS: 4766765  HIT %: 82.9717  MISS %: 17.0283  AVERAGE MISS PENALTY: 153.626
DTLB RFO       ACCESS: 8888286  HIT: 8879602  MISS:  8684  HIT %: 99.9023  MISS %: 0.0977016  AVERAGE MISS PENALTY: 141.691
DTLB PREFETCH  ACCESS:     0  HIT:     0  MISS:     0  HIT %:     0  MISS %:     0  AVERAGE MISS PENALTY: 0
DTLB WRITEBACK ACCESS:     0  HIT:     0  MISS:     0  HIT %:     0  MISS %:     0  AVERAGE MISS PENALTY: 0

STLB TOTAL     ACCESS: 4775449  HIT:    65  MISS: 4775384  HIT %: 0.00136113  MISS %: 99.9986  AVERAGE MISS PENALTY: 100
STLB LOAD      ACCESS: 4766765  HIT:    65  MISS: 4766700  HIT %: 0.00136361  MISS %: 99.9986  AVERAGE MISS PENALTY: 100
STLB RFO       ACCESS:  8684  HIT:     0  MISS:  8684  HIT %:     0  MISS %:   100  AVERAGE MISS PENALTY: 100
STLB PREFETCH  ACCESS:     0  HIT:     0  MISS:     0  HIT %:     0  MISS %:     0  AVERAGE MISS PENALTY: 0
STLB WRITEBACK ACCESS:     0  HIT:     0  MISS:     0  HIT %:     0  MISS %:     0  AVERAGE MISS PENALTY: 0

L1D TOTAL     ACCESS: 41136076  HIT: 28007796  MISS: 13128280  HIT %: 68.0857  MISS %: 31.9143  AVERAGE MISS PENALTY: 999895
L1D LOAD      ACCESS: 29932544  HIT: 19516874  MISS: 10415670  HIT %: 65.2029  MISS %: 34.7971  AVERAGE MISS PENALTY: 1.25736e+06
L1D RFO       ACCESS: 8888388  HIT: 8333756  MISS: 554632  HIT %: 93.76  MISS %: 6.23996  AVERAGE MISS PENALTY: 53407.1
L1D PREFETCH  ACCESS: 2315144  HIT: 157166  MISS: 2157978  HIT %: 6.78861  MISS %: 93.2114  AVERAGE MISS PENALTY: 469.062
L1D WRITEBACK ACCESS:     0  HIT:     0  MISS:     0  HIT %:     0  MISS %:     0  AVERAGE MISS PENALTY: 0

L1I TOTAL     ACCESS: 55554774  HIT: 55554774  MISS:     0  HIT %:   100  MISS %:     0  AVERAGE MISS PENALTY: 0
L1I LOAD      ACCESS: 55554774  HIT: 55554774  MISS:     0  HIT %:   100  MISS %:     0  AVERAGE MISS PENALTY: 0
L1I RFO       ACCESS:     0  HIT:     0  MISS:     0  HIT %:     0  MISS %:     0  AVERAGE MISS PENALTY: 0
L1I PREFETCH  ACCESS:     0  HIT:     0  MISS:     0  HIT %:     0  MISS %:     0  AVERAGE MISS PENALTY: 0
L1I WRITEBACK ACCESS:     0  HIT:     0  MISS:     0  HIT %:     0  MISS %:     0  AVERAGE MISS PENALTY: 0

L2C TOTAL     ACCESS: 18665006  HIT: 6795367  MISS: 11869639  HIT %: 36.407  MISS %: 63.593  AVERAGE MISS PENALTY: 1.51592e+06
L2C LOAD      ACCESS: 10414669  HIT: 1853983  MISS: 8560686  HIT %: 17.8017  MISS %: 82.1983  AVERAGE MISS PENALTY: 2.10168e+06
L2C RFO       ACCESS: 554605  HIT: 256447  MISS: 298158  HIT %: 46.2396  MISS %: 53.7604  AVERAGE MISS PENALTY: 134.405
L2C PREFETCH  ACCESS: 3251574  HIT: 240779  MISS: 3010795  HIT %: 7.405  MISS %: 92.595  AVERAGE MISS PENALTY: 505.028
L2C WRITEBACK ACCESS: 4444158  HIT: 4444158  MISS:     0  HIT %:   100  MISS %:     0  AVERAGE MISS PENALTY: 0


LLC0 TOTAL     ACCESS: 2068289  HIT: 958613  MISS: 1109676  HIT %: 46.3481  MISS %: 53.6519  AVERAGE MISS PENALTY: 398.19
LLC0 LOAD      ACCESS: 1079362  HIT: 401614  MISS: 677748  HIT %: 37.2085  MISS %: 62.7915  AVERAGE MISS PENALTY: 390.432
LLC0 RFO       ACCESS: 38327  HIT: 32171  MISS:  6156  HIT %: 83.9382  MISS %: 16.0618  AVERAGE MISS PENALTY: 423.094
LLC0 PREFETCH  ACCESS: 395085  HIT: 67959  MISS: 327126  HIT %: 17.2011  MISS %: 82.7989  AVERAGE MISS PENALTY: 533.869
LLC0 WRITEBACK ACCESS: 555515  HIT: 456869  MISS: 98646  HIT %: 82.2424  MISS %: 17.7576  AVERAGE MISS PENALTY: 0

LLC1 TOTAL     ACCESS: 2083417  HIT: 965497  MISS: 1117920  HIT %: 46.342  MISS %: 53.658  AVERAGE MISS PENALTY: 400.234
LLC1 LOAD      ACCESS: 1082563  HIT: 407258  MISS: 675305  HIT %: 37.6198  MISS %: 62.3802  AVERAGE MISS PENALTY: 386.545
LLC1 RFO       ACCESS: 38876  HIT: 32470  MISS:  6406  HIT %: 83.522  MISS %: 16.478  AVERAGE MISS PENALTY: 417.544
LLC1 PREFETCH  ACCESS: 406435  HIT: 67937  MISS: 338498  HIT %: 16.7153  MISS %: 83.2847  AVERAGE MISS PENALTY: 542.749
LLC1 WRITEBACK ACCESS: 555543  HIT: 457832  MISS: 97711  HIT %: 82.4116  MISS %: 17.5884  AVERAGE MISS PENALTY: 0

LLC2 TOTAL     ACCESS: 2125185  HIT: 999738  MISS: 1125447  HIT %: 47.0424  MISS %: 52.9576  AVERAGE MISS PENALTY: 406.99
LLC2 LOAD      ACCESS: 1114850  HIT: 437058  MISS: 677792  HIT %: 39.2033  MISS %: 60.7967  AVERAGE MISS PENALTY: 395.551
LLC2 RFO       ACCESS: 40026  HIT: 33436  MISS:  6590  HIT %: 83.5357  MISS %: 16.4643  AVERAGE MISS PENALTY: 427.49
LLC2 PREFETCH  ACCESS: 414780  HIT: 70172  MISS: 344608  HIT %: 16.9179  MISS %: 83.0821  AVERAGE MISS PENALTY: 543.017
LLC2 WRITEBACK ACCESS: 555529  HIT: 459072  MISS: 96457  HIT %: 82.6369  MISS %: 17.3631  AVERAGE MISS PENALTY: 0

LLC3 TOTAL     ACCESS: 2005106  HIT: 946261  MISS: 1058845  HIT %: 47.1926  MISS %: 52.8074  AVERAGE MISS PENALTY: 404.718
LLC3 LOAD      ACCESS: 1053160  HIT: 391210  MISS: 661950  HIT %: 37.1463  MISS %: 62.8537  AVERAGE MISS PENALTY: 388.772
[...]
LLC2 TOTAL     ACCESS: 2110360  HIT: 988510  MISS: 1121850  HIT %: 46.8408  MISS %: 53.1592  AVERAGE MISS PENALTY: 407.537
LLC2 LOAD      ACCESS: 1103561  HIT: 427163  MISS: 676398  HIT %: 38.7077  MISS %: 61.2923  AVERAGE MISS PENALTY: 396.382
LLC2 RFO       ACCESS: 39845  HIT: 33278  MISS:  6567  HIT %: 83.5186  MISS %: 16.4814  AVERAGE MISS PENALTY: 422.763
LLC2 PREFETCH  ACCESS: 412653  HIT: 69059  MISS: 343594  HIT %: 16.7354  MISS %: 83.2646  AVERAGE MISS PENALTY: 542.23
LLC2 WRITEBACK ACCESS: 554301  HIT: 459010  MISS: 95291  HIT %: 82.8088  MISS %: 17.1912  AVERAGE MISS PENALTY: 0
LLC2 PREFETCH  REQUESTED:     0  ISSUED:     0  USEFUL: 509237  USELESS: 2245437
 USEFUL LOAD PREFETCHES:     509237 PREFETCH ISSUED TO LOWER LEVEL:    2751233  ACCURACY: 18.5094
 TIMELY PREFETCHES:     509237 LATE PREFETCHES: 0 DROPPED PREFETCHES: 0
LLC2 AVERAGE MISS LATENCY: 407.537 cycles
LLC3 TOTAL     ACCESS: 1998915  HIT: 943656  MISS: 1055259  HIT %: 47.2084  MISS %: 52.7916  AVERAGE MISS PENALTY: 405.564
LLC3 LOAD      ACCESS: 1049169  HIT: 389338  MISS: 659831  HIT %: 37.1092  MISS %: 62.8908  AVERAGE MISS PENALTY: 389.263
LLC3 RFO       ACCESS: 35962  HIT: 30157  MISS:  5805  HIT %: 83.858  MISS %: 16.142  AVERAGE MISS PENALTY: 436.402
LLC3 PREFETCH  ACCESS: 359480  HIT: 66231  MISS: 293249  HIT %: 18.4241  MISS %: 81.5759  AVERAGE MISS PENALTY: 574.917
LLC3 WRITEBACK ACCESS: 554304  HIT: 457930  MISS: 96374  HIT %: 82.6135  MISS %: 17.3865  AVERAGE MISS PENALTY: 0
LLC3 PREFETCH  REQUESTED:     0  ISSUED:     0  USEFUL: 500153  USELESS: 1851090
 USEFUL LOAD PREFETCHES:     500153 PREFETCH ISSUED TO LOWER LEVEL:    2348354  ACCURACY: 21.298
 TIMELY PREFETCHES:     500153 LATE PREFETCHES: 0 DROPPED PREFETCHES: 0
LLC3 AVERAGE MISS LATENCY: 405.564 cycles
LLC4 TOTAL     ACCESS: 2001121  HIT: 941164  MISS: 1059957  HIT %: 47.0318  MISS %: 52.9682  AVERAGE MISS PENALTY: 396.831
LLC4 LOAD      ACCESS: 1050293  HIT: 389674  MISS: 660619  HIT %: 37.1015  MISS %: 62.8985  AVERAGE MISS PENALTY: 382.044
LLC4 RFO       ACCESS: 35632  HIT: 29970  MISS:  5662  HIT %: 84.1098  MISS %: 15.8902  AVERAGE MISS PENALTY: 431.898
LLC4 PREFETCH  ACCESS: 360867  HIT: 64228  MISS: 296639  HIT %: 17.7982  MISS %: 82.2018  AVERAGE MISS PENALTY: 558.904
LLC4 WRITEBACK ACCESS: 554329  HIT: 457292  MISS: 97037  HIT %: 82.4947  MISS %: 17.5053  AVERAGE MISS PENALTY: 0
LLC4 PREFETCH  REQUESTED:     0  ISSUED:     0  USEFUL: 497781  USELESS: 1881956
 USEFUL LOAD PREFETCHES:     497781 PREFETCH ISSUED TO LOWER LEVEL:    2376878  ACCURACY: 20.9426
 TIMELY PREFETCHES:     497781 LATE PREFETCHES: 0 DROPPED PREFETCHES: 0
LLC4 AVERAGE MISS LATENCY: 396.831 cycles
LLC5 TOTAL     ACCESS: 2007341  HIT: 941750  MISS: 1065591  HIT %: 46.9153  MISS %: 53.0847  AVERAGE MISS PENALTY: 397.533
LLC5 LOAD      ACCESS: 1052077  HIT: 391056  MISS: 661021  HIT %: 37.1699  MISS %: 62.8301  AVERAGE MISS PENALTY: 381.903
LLC5 RFO       ACCESS: 35892  HIT: 30146  MISS:  5746  HIT %: 83.9909  MISS %: 16.0091  AVERAGE MISS PENALTY: 418.771
LLC5 PREFETCH  ACCESS: 365058  HIT: 63579  MISS: 301479  HIT %: 17.4161  MISS %: 82.5839  AVERAGE MISS PENALTY: 559.759
LLC5 WRITEBACK ACCESS: 554314  HIT: 456969  MISS: 97345  HIT %: 82.4387  MISS %: 17.5613  AVERAGE MISS PENALTY: 0
LLC5 PREFETCH  REQUESTED:     0  ISSUED:     0  USEFUL: 498662  USELESS: 1920474
 USEFUL LOAD PREFETCHES:     498662 PREFETCH ISSUED TO LOWER LEVEL:    2416415  ACCURACY: 20.6364
 TIMELY PREFETCHES:     498662 LATE PREFETCHES: 0 DROPPED PREFETCHES: 0
LLC5 AVERAGE MISS LATENCY: 397.533 cycles
LLC6 TOTAL     ACCESS: 2003377  HIT: 939912  MISS: 1063465  HIT %: 46.9164  MISS %: 53.0836  AVERAGE MISS PENALTY: 400.262
LLC6 LOAD      ACCESS: 1052654  HIT: 392275  MISS: 660379  HIT %: 37.2653  MISS %: 62.7347  AVERAGE MISS PENALTY: 387.585
LLC6 RFO       ACCESS: 35860  HIT: 30179  MISS:  5681  HIT %: 84.1578  MISS %: 15.8422  AVERAGE MISS PENALTY: 430.76
LLC6 PREFETCH  ACCESS: 360555  HIT: 61023  MISS: 299532  HIT %: 16.9247  MISS %: 83.0753  AVERAGE MISS PENALTY: 558.419
LLC6 WRITEBACK ACCESS: 554308  HIT: 456435  MISS: 97873  HIT %: 82.3432  MISS %: 17.6568  AVERAGE MISS PENALTY: 0
LLC6 PREFETCH  REQUESTED:     0  ISSUED:     0  USEFUL: 495316  USELESS: 1906834
 USEFUL LOAD PREFETCHES:     495316 PREFETCH ISSUED TO LOWER LEVEL:    2399338  ACCURACY: 20.6439
 TIMELY PREFETCHES:     495316 LATE PREFETCHES: 0 DROPPED PREFETCHES: 0
LLC6 AVERAGE MISS LATENCY: 400.262 cycles
LLC7 TOTAL     ACCESS: 2015511  HIT: 957596  MISS: 1057915  HIT %: 47.5113  MISS %: 52.4887  AVERAGE MISS PENALTY: 402.132
LLC7 LOAD      ACCESS: 1072773  HIT: 407120  MISS: 665653  HIT %: 37.9502  MISS %: 62.0498  AVERAGE MISS PENALTY: 387.36
LLC7 RFO       ACCESS: 36145  HIT: 30461  MISS:  5684  HIT %: 84.2745  MISS %: 15.7255  AVERAGE MISS PENALTY: 442.987
LLC7 PREFETCH  ACCESS: 352270  HIT: 61871  MISS: 290399  HIT %: 17.5635  MISS %: 82.4365  AVERAGE MISS PENALTY: 568.376
LLC7 WRITEBACK ACCESS: 554323  HIT: 458144  MISS: 96179  HIT %: 82.6493  MISS %: 17.3507  AVERAGE MISS PENALTY: 0
LLC7 PREFETCH  REQUESTED:     0  ISSUED:     0  USEFUL: 493721  USELESS: 1835488
 USEFUL LOAD PREFETCHES:     493721 PREFETCH ISSUED TO LOWER LEVEL:    2326423  ACCURACY: 21.2223
 TIMELY PREFETCHES:     493721 LATE PREFETCHES: 0 DROPPED PREFETCHES: 0
LLC7 AVERAGE MISS LATENCY: 402.132 cycles
ROI Average ROB Stall Cycles:	70.8302
ROI Total ROB Stalls Cycles:	1733194995
ROI TOTAL ROB counter      :	24469709
ROI Average Load ROB Stall Cycles:	213.934
ROI Total Load ROB Stalls Cycle  :	1538766787
ROI Total Load ROB stalls Counter:	7192706
Major fault: 0 Minor fault: 159444

CPU 7 cumulative IPC: 0.111099 instructions: 200000002 cycles: 1800200075
ITLB TOTAL     ACCESS: 46302682  HIT: 46302682  MISS:     0  HIT %:   100  MISS %:     0  AVERAGE MISS PENALTY: 0
ITLB LOAD      ACCESS: 46302682  HIT: 46302682  MISS:     0  HIT %:   100  MISS %:     0  AVERAGE MISS PENALTY: 0
ITLB RFO       ACCESS:     0  HIT:     0  MISS:     0  HIT %:     0  MISS %:     0  AVERAGE MISS PENALTY: 0
ITLB PREFETCH  ACCESS:     0  HIT:     0  MISS:     0  HIT %:     0  MISS %:     0  AVERAGE MISS PENALTY: 0
ITLB WRITEBACK ACCESS:     0  HIT:     0  MISS:     0  HIT %:     0  MISS %:     0  AVERAGE MISS PENALTY: 0
ITLB PREFETCH  REQUESTED:     0  ISSUED:     0  USEFUL:     0  USELESS:     0
 USEFUL LOAD PREFETCHES:          0 PREFETCH ISSUED TO LOWER LEVEL:          0  ACCURACY: -nan
 TIMELY PREFETCHES:          0 LATE PREFETCHES: 0 DROPPED PREFETCHES: 0
ITLB AVERAGE MISS LATENCY: -nan cycles
DTLB TOTAL     ACCESS: 36803475  HIT: 32038343  MISS: 4765132  HIT %: 87.0525  MISS %: 12.9475  AVERAGE MISS PENALTY: 153.597
DTLB LOAD      ACCESS: 27934710  HIT: 23178242  MISS: 4756468  HIT %: 82.9729  MISS %: 17.0271  AVERAGE MISS PENALTY: 153.62
DTLB RFO       ACCESS: 8868765  HIT: 8860101  MISS:  8664  HIT %: 99.9023  MISS %: 0.0976912  AVERAGE MISS PENALTY: 141.313
DTLB PREFETCH  ACCESS:     0  HIT:     0  MISS:     0  HIT %:     0  MISS %:     0  AVERAGE MISS PENALTY: 0
DTLB WRITEBACK ACCESS:     0  HIT:     0  MISS:     0  HIT %:     0  MISS %:     0  AVERAGE MISS PENALTY: 0
DTLB PREFETCH  REQUESTED:     0  ISSUED:     0  USEFUL:     0  USELESS:     0
 USEFUL LOAD PREFETCHES:          0 PREFETCH ISSUED TO LOWER LEVEL:          0  ACCURACY: -nan
 TIMELY PREFETCHES:          0 LATE PREFETCHES: 0 DROPPED PREFETCHES: 0
DTLB AVERAGE MISS LATENCY: 153.597 cycles
STLB TOTAL     ACCESS: 4765132  HIT:    64  MISS: 4765068  HIT %: 0.00134309  MISS %: 99.9987  AVERAGE MISS PENALTY: 100
STLB LOAD      ACCESS: 4756468  HIT:    64  MISS: 4756404  HIT %: 0.00134554  MISS %: 99.9987  AVERAGE MISS PENALTY: 100
STLB RFO       ACCESS:  8664  HIT:     0  MISS:  8664  HIT %:     0  MISS %:   100  AVERAGE MISS PENALTY: 100
STLB PREFETCH  ACCESS:     0  HIT:     0  MISS:     0  HIT %:     0  MISS %:     0  AVERAGE MISS PENALTY: 0
STLB WRITEBACK ACCESS:     0  HIT:     0  MISS:     0  HIT %:     0  MISS %:     0  AVERAGE MISS PENALTY: 0
STLB PREFETCH  REQUESTED:     0  ISSUED:     0  USEFUL:     0  USELESS:     0
 USEFUL LOAD PREFETCHES:          0 PREFETCH ISSUED TO LOWER LEVEL:          0  ACCURACY: -nan
 TIMELY PREFETCHES:          0 LATE PREFETCHES: 0 DROPPED PREFETCHES: 0
STLB AVERAGE MISS LATENCY: 100 cycles
L1D TOTAL     ACCESS: 41038828  HIT: 27943573  MISS: 13095255  HIT %: 68.0906  MISS %: 31.9094  AVERAGE MISS PENALTY: 965589
L1D LOAD      ACCESS: 29867898  HIT: 19473835  MISS: 10394063  HIT %: 65.1999  MISS %: 34.8001  AVERAGE MISS PENALTY: 1.21199e+06
L1D RFO       ACCESS: 8868875  HIT: 8315508  MISS: 553367  HIT %: 93.7606  MISS %: 6.23943  AVERAGE MISS PENALTY: 83319.9
L1D PREFETCH  ACCESS: 2302055  HIT: 154230  MISS: 2147825  HIT %: 6.69967  MISS %: 93.3003  AVERAGE MISS PENALTY: 469.912
L1D WRITEBACK ACCESS:     0  HIT:     0  MISS:     0  HIT %:     0  MISS %:     0  AVERAGE MISS PENALTY: 0
L1D PREFETCH  REQUESTED: 2483118  ISSUED: 2472916  USEFUL: 138701  USELESS: 2009211
 USEFUL LOAD PREFETCHES:     138701 PREFETCH ISSUED TO LOWER LEVEL:    2317057  ACCURACY: 5.98608
 TIMELY PREFETCHES:     138701 LATE PREFETCHES: 141801 DROPPED PREFETCHES: 10202
L1D AVERAGE MISS LATENCY: 3803.9 cycles
L1I TOTAL     ACCESS: 55431194  HIT: 55431194  MISS:     0  HIT %:   100  MISS %:     0  AVERAGE MISS PENALTY: 0
L1I LOAD      ACCESS: 55431194  HIT: 55431194  MISS:     0  HIT %:   100  MISS %:     0  AVERAGE MISS PENALTY: 0
L1I RFO       ACCESS:     0  HIT:     0  MISS:     0  HIT %:     0  MISS %:     0  AVERAGE MISS PENALTY: 0
L1I PREFETCH  ACCESS:     0  HIT:     0  MISS:     0  HIT %:     0  MISS %:     0  AVERAGE MISS PENALTY: 0
L1I WRITEBACK ACCESS:     0  HIT:     0  MISS:     0  HIT %:     0  MISS %:     0  AVERAGE MISS PENALTY: 0
L1I PREFETCH  REQUESTED:     0  ISSUED:     0  USEFUL:     0  USELESS:     0
 USEFUL LOAD PREFETCHES:          0 PREFETCH ISSUED TO LOWER LEVEL:          0  ACCURACY: -nan
 TIMELY PREFETCHES:          0 LATE PREFETCHES: 0 DROPPED PREFETCHES: 0
L1I AVERAGE MISS LATENCY: -nan cycles
L2C TOTAL     ACCESS: 18617092  HIT: 6735900  MISS: 11881192  HIT %: 36.1813  MISS %: 63.8187  AVERAGE MISS PENALTY: 1.44076e+06
L2C LOAD      ACCESS: 10393094  HIT: 1808343  MISS: 8584751  HIT %: 17.3995  MISS %: 82.6005  AVERAGE MISS PENALTY: 1.99382e+06
L2C RFO       ACCESS: 553329  HIT: 257111  MISS: 296218  HIT %: 46.4662  MISS %: 53.5338  AVERAGE MISS PENALTY: 133.755
L2C PREFETCH  ACCESS: 3236260  HIT: 236038  MISS: 3000222  HIT %: 7.29354  MISS %: 92.7065  AVERAGE MISS PENALTY: 506.488
L2C WRITEBACK ACCESS: 4434409  HIT: 4434408  MISS:     1  HIT %:   100  MISS %: 2.25509e-05  AVERAGE MISS PENALTY: 0
L2C PREFETCH  REQUESTED: 1930471  ISSUED: 1912726  USEFUL: 113318  USELESS: 2887951
 USEFUL LOAD PREFETCHES:     113318 PREFETCH ISSUED TO LOWER LEVEL:    3059767  ACCURACY: 3.70348
 TIMELY PREFETCHES:     113318 LATE PREFETCHES: 46037 DROPPED PREFETCHES: 17745
L2C AVERAGE MISS LATENCY: 338.251 cycles
LLC0 TOTAL     ACCESS: 2060858  HIT: 953122  MISS: 1107736  HIT %: 46.2488  MISS %: 53.7512  AVERAGE MISS PENALTY: 399.202
LLC0 LOAD      ACCESS: 1073652  HIT: 397629  MISS: 676023  HIT %: 37.0352  MISS %: 62.9648  AVERAGE MISS PENALTY: 391.446
LLC0 RFO       ACCESS: 38101  HIT: 31971  MISS:  6130  HIT %: 83.9112  MISS %: 16.0888  AVERAGE MISS PENALTY: 419.621
LLC0 PREFETCH  ACCESS: 394795  HIT: 67506  MISS: 327289  HIT %: 17.099  MISS %: 82.901  AVERAGE MISS PENALTY: 534.732
LLC0 WRITEBACK ACCESS: 554310  HIT: 456016  MISS: 98294  HIT %: 82.2673  MISS %: 17.7327  AVERAGE MISS PENALTY: 0
LLC0 PREFETCH  REQUESTED:     0  ISSUED:     0  USEFUL: 445984  USELESS: 2176197
 USEFUL LOAD PREFETCHES:     445984 PREFETCH ISSUED TO LOWER LEVEL:    2618461  ACCURACY: 17.0323
 TIMELY PREFETCHES:     445984 LATE PREFETCHES: 0 DROPPED PREFETCHES: 0
LLC0 AVERAGE MISS LATENCY: 399.202 cycles
Deadblocks : 4362668 Deadblock percentage : 645.343

LLC1 TOTAL     ACCESS: 2093900  HIT: 976960  MISS: 1116940  HIT %: 46.6574  MISS %: 53.3426  AVERAGE MISS PENALTY: 400.036
LLC1 LOAD      ACCESS: 1095845  HIT: 421464  MISS: 674381  HIT %: 38.4602  MISS %: 61.5398  AVERAGE MISS PENALTY: 386.329
LLC1 RFO       ACCESS: 38374  HIT: 32157  MISS:  6217  HIT %: 83.7989  MISS %: 16.2011  AVERAGE MISS PENALTY: 417.655
LLC1 PREFETCH  ACCESS: 405369  HIT: 67760  MISS: 337609  HIT %: 16.7156  MISS %: 83.2844  AVERAGE MISS PENALTY: 544.08
LLC1 WRITEBACK ACCESS: 554312  HIT: 455579  MISS: 98733  HIT %: 82.1882  MISS %: 17.8118  AVERAGE MISS PENALTY: 0
LLC1 PREFETCH  REQUESTED:     0  ISSUED:     0  USEFUL: 477110  USELESS: 2231732
 USEFUL LOAD PREFETCHES:     477110 PREFETCH ISSUED TO LOWER LEVEL:    2705373  ACCURACY: 17.6356
 TIMELY PREFETCHES:     477110 LATE PREFETCHES: 0 DROPPED PREFETCHES: 0
LLC1 AVERAGE MISS LATENCY: 400.036 cycles
LLC2 TOTAL     ACCESS: 2121724  HIT: 998926  MISS: 1122798  HIT %: 47.0809  MISS %: 52.9191  AVERAGE MISS PENALTY: 408.038
LLC2 LOAD      ACCESS: 1115185  HIT: 438470  MISS: 676715  HIT %: 39.3181  MISS %: 60.6819  AVERAGE MISS PENALTY: 397.189
LLC2 RFO       ACCESS: 39688  HIT: 33175  MISS:  6513  HIT %: 83.5895  MISS %: 16.4105  AVERAGE MISS PENALTY: 429.332
LLC2 PREFETCH  ACCESS: 412562  HIT: 69193  MISS: 343369  HIT %: 16.7715  MISS %: 83.2285  AVERAGE MISS PENALTY: 543.336
LLC2 WRITEBACK ACCESS: 554289  HIT: 458088  MISS: 96201  HIT %: 82.6443  MISS %: 17.3557  AVERAGE MISS PENALTY: 0
LLC2 PREFETCH  REQUESTED:     0  ISSUED:     0  USEFUL: 509237  USELESS: 2245437
 USEFUL LOAD PREFETCHES:     509237 PREFETCH ISSUED TO LOWER LEVEL:    2751233  ACCURACY: 18.5094
 TIMELY PREFETCHES:     509237 LATE PREFETCHES: 0 DROPPED PREFETCHES: 0
LLC2 AVERAGE MISS LATENCY: 408.038 cycles
LLC3 TOTAL     ACCESS: 2007124  HIT: 950688  MISS: 1056436  HIT %: 47.3657  MISS %: 52.6343  AVERAGE MISS PENALTY: 404.858
LLC3 LOAD      ACCESS: 1057756  HIT: 397040  MISS: 660716  HIT %: 37.5361  MISS %: 62.4639  AVERAGE MISS PENALTY: 389.204
LLC3 RFO       ACCESS: 35983  HIT: 30270  MISS:  5713  HIT %: 84.1231  MISS %: 15.8769  AVERAGE MISS PENALTY: 440.77
LLC3 PREFETCH  ACCESS: 359059  HIT: 66325  MISS: 292734  HIT %: 18.4719  MISS %: 81.5281  AVERAGE MISS PENALTY: 574.02
LLC3 WRITEBACK ACCESS: 554326  HIT: 457053  MISS: 97273  HIT %: 82.452  MISS %: 17.548  AVERAGE MISS PENALTY: 0
LLC3 PREFETCH  REQUESTED:     0  ISSUED:     0  USEFUL: 500153  USELESS: 1851090
 USEFUL LOAD PREFETCHES:     500153 PREFETCH ISSUED TO LOWER LEVEL:    2348354  ACCURACY: 21.298
 TIMELY PREFETCHES:     500153 LATE PREFETCHES: 0 DROPPED PREFETCHES: 0
LLC3 AVERAGE MISS LATENCY: 404.858 cycles
LLC4 TOTAL     ACCESS: 2003748  HIT: 943072  MISS: 1060676  HIT %: 47.0654  MISS %: 52.9346  AVERAGE MISS PENALTY: 398.146
LLC4 LOAD      ACCESS: 1052395  HIT: 391173  MISS: 661222  HIT %: 37.1698  MISS %: 62.8302  AVERAGE MISS PENALTY: 383.391
LLC4 RFO       ACCESS: 35504  HIT: 29817  MISS:  5687  HIT %: 83.9821  MISS %: 16.0179  AVERAGE MISS PENALTY: 428.28
LLC4 PREFETCH  ACCESS: 361535  HIT: 64702  MISS: 296833  HIT %: 17.8965  MISS %: 82.1035  AVERAGE MISS PENALTY: 560.456
LLC4 WRITEBACK ACCESS: 554314  HIT: 457380  MISS: 96934  HIT %: 82.5128  MISS %: 17.4872  AVERAGE MISS PENALTY: 0
LLC4 PREFETCH  REQUESTED:     0  ISSUED:     0  USEFUL: 497781  USELESS: 1881956
 USEFUL LOAD PREFETCHES:     497781 PREFETCH ISSUED TO LOWER LEVEL:    2376878  ACCURACY: 20.9426
 TIMELY PREFETCHES:     497781 LATE PREFETCHES: 0 DROPPED PREFETCHES: 0
LLC4 AVERAGE MISS LATENCY: 398.146 cycles
LLC5 TOTAL     ACCESS: 2009322  HIT: 944414  MISS: 1064908  HIT %: 47.0016  MISS %: 52.9984  AVERAGE MISS PENALTY: 399.189
LLC5 LOAD      ACCESS: 1053238  HIT: 392391  MISS: 660847  HIT %: 37.2557  MISS %: 62.7443  AVERAGE MISS PENALTY: 383.216
LLC5 RFO       ACCESS: 36249  HIT: 30544  MISS:  5705  HIT %: 84.2616  MISS %: 15.7384  AVERAGE MISS PENALTY: 426.903
LLC5 PREFETCH  ACCESS: 365511  HIT: 64135  MISS: 301376  HIT %: 17.5467  MISS %: 82.4533  AVERAGE MISS PENALTY: 562.144
LLC5 WRITEBACK ACCESS: 554324  HIT: 457344  MISS: 96980  HIT %: 82.5048  MISS %: 17.4952  AVERAGE MISS PENALTY: 0
LLC5 PREFETCH  REQUESTED:     0  ISSUED:     0  USEFUL: 498662  USELESS: 1920474
 USEFUL LOAD PREFETCHES:     498662 PREFETCH ISSUED TO LOWER LEVEL:    2416415  ACCURACY: 20.6364
 TIMELY PREFETCHES:     498662 LATE PREFETCHES: 0 DROPPED PREFETCHES: 0
LLC5 AVERAGE MISS LATENCY: 399.189 cycles
LLC6 TOTAL     ACCESS: 2004372  HIT: 940841  MISS: 1063531  HIT %: 46.9394  MISS %: 53.0606  AVERAGE MISS PENALTY: 401.325
LLC6 LOAD      ACCESS: 1053911  HIT: 393575  MISS: 660336  HIT %: 37.3442  MISS %: 62.6558  AVERAGE MISS PENALTY: 388.37
LLC6 RFO       ACCESS: 35960  HIT: 30268  MISS:  5692  HIT %: 84.1713  MISS %: 15.8287  AVERAGE MISS PENALTY: 428.102
LLC6 PREFETCH  ACCESS: 360144  HIT: 60762  MISS: 299382  HIT %: 16.8716  MISS %: 83.1284  AVERAGE MISS PENALTY: 560.923
LLC6 WRITEBACK ACCESS: 554357  HIT: 456236  MISS: 98121  HIT %:  82.3  MISS %:  17.7  AVERAGE MISS PENALTY: 0
LLC6 PREFETCH  REQUESTED:     0  ISSUED:     0  USEFUL: 495316  USELESS: 1906834
 USEFUL LOAD PREFETCHES:     495316 PREFETCH ISSUED TO LOWER LEVEL:    2399338  ACCURACY: 20.6439
 TIMELY PREFETCHES:     495316 LATE PREFETCHES: 0 DROPPED PREFETCHES: 0
LLC6 AVERAGE MISS LATENCY: 401.325 cycles
LLC7 TOTAL     ACCESS: 2014711  HIT: 957547  MISS: 1057164  HIT %: 47.5278  MISS %: 52.4722  AVERAGE MISS PENALTY: 402.439
LLC7 LOAD      ACCESS: 1071795  HIT: 406868  MISS: 664927  HIT %: 37.9614  MISS %: 62.0386  AVERAGE MISS PENALTY: 388.325
LLC7 RFO       ACCESS: 36359  HIT: 30574  MISS:  5785  HIT %: 84.0892  MISS %: 15.9108  AVERAGE MISS PENALTY: 426.977
LLC7 PREFETCH  ACCESS: 352221  HIT: 62133  MISS: 290088  HIT %: 17.6403  MISS %: 82.3597  AVERAGE MISS PENALTY: 567.986
LLC7 WRITEBACK ACCESS: 554336  HIT: 457972  MISS: 96364  HIT %: 82.6163  MISS %: 17.3837  AVERAGE MISS PENALTY: 0
LLC7 PREFETCH  REQUESTED:     0  ISSUED:     0  USEFUL: 493721  USELESS: 1835488
 USEFUL LOAD PREFETCHES:     493721 PREFETCH ISSUED TO LOWER LEVEL:    2326423  ACCURACY: 21.2223
 TIMELY PREFETCHES:     493721 LATE PREFETCHES: 0 DROPPED PREFETCHES: 0
LLC7 AVERAGE MISS LATENCY: 402.439 cycles
ROI Average ROB Stall Cycles:	70.9503
ROI Total ROB Stalls Cycles:	1736033658
ROI TOTAL ROB counter      :	24468315
ROI Average Load ROB Stall Cycles:	214.342
ROI Total Load ROB Stalls Cycle  :	1541439051
ROI Total Load ROB stalls Counter:	7191484
Major fault: 0 Minor fault: 159318








Interconnect Stats 
LINK 0 BW : 0LINK 1 BW : 0LINK 2 BW : 0LINK 3 BW : 0LINK 4 BW : 0LINK 5 BW : 0LINK 6 BW : 0LINK 7 BW : 0
DRAM Statistics
 CHANNEL 0
 RQ ROW_BUFFER_HIT: 1891579  ROW_BUFFER_MISS: 29859104
 DBUS_CONGESTED: 47879492
 WQ ROW_BUFFER_HIT: 1208110  ROW_BUFFER_MISS: 16545993  FULL:     0

 CHANNEL 1
 RQ ROW_BUFFER_HIT: 1832322  ROW_BUFFER_MISS: 29462926
 DBUS_CONGESTED: 47879492
 WQ ROW_BUFFER_HIT: 1249881  ROW_BUFFER_MISS: 16505162  FULL:     0

 AVG_CONGESTED_CYCLE: 6
DRAM PAGES: 2097152
Allocated PAGES: 1275295
L2C destructor called
L1D destructor called
L1I destructor called
STLB destructor called
DTLB destructor called
ITLB destructor called
L2C destructor called
L1D destructor called
L1I destructor called
STLB destructor called
DTLB destructor called
ITLB destructor called
L2C destructor called
L1D destructor called
L1I destructor called
STLB destructor called
DTLB destructor called
ITLB destructor called
L2C destructor called
L1D destructor called
L1I destructor called
STLB destructor called
DTLB destructor called
ITLB destructor called
L2C destructor called
L1D destructor called
L1I destructor called
STLB destructor called
DTLB destructor called
ITLB destructor called
L2C destructor called
L1D destructor called
L1I destructor called
STLB destructor called
DTLB destructor called
ITLB destructor called
L2C destructor called
L1D destructor called
L1I destructor called
STLB destructor called
DTLB destructor called
ITLB destructor called
L2C destructor called
L1D destructor called
L1I destructor called
STLB destructor called
DTLB destructor called
ITLB destructor called
