
*** ChampSim Multicore Out-of-Order Simulator ***

Warmup Instructions: 200000000
Simulation Instructions: 200000000
Number of CPUs: 8
threads:1

L1I Configuration:
L1I_SET:64
L1I_WAY:8
L1I_RQ_SIZE:64
L1I_WQ_SIZE:64
L1I_PQ_SIZE:8
L1I_MSHR_SIZE:8

L1D Configuration:
L1D_SET:64
L1D_WAY:12
L1D_RQ_SIZE:64
L1D_WQ_SIZE:64
L1D_PQ_SIZE:8
L1D_MSHR_SIZE:16

L2C Configuration:
L2C_SET:1024
L2C_WAY:8
L2C_RQ_SIZE:32
L2C_WQ_SIZE:32
L2C_PQ_SIZE:16
L2C_MSHR_SIZE:32

LLC Configuration:
LLC_SET:2048
LLC_WAY:16
LLC SLICES:8
LLC_RQ_SIZE:64
LLC_WQ_SIZE:64
LLC_PQ_SIZE:32
LLC_MSHR_SIZE:64

Interconnect OFF
Attacker deprioritize is: OFF
Off-chip DRAM Size: 8192 MB Channels: 2 Width: 64-bit Data Rate: 3200 MT/s
PAGE SIZE in KB: 4.000000 
PAGE SIZE in MB: 0.003906 
PAGE offset in bits: 12 
CEASER-S_LLC:0
MIRAGE : 1
CEASER_LATENCY:3
REMAP : OFF
Partitions : 1
Multi-Step : OFF
BFS : OFF

CPU 0 runs /home/anubhav/spec_2017/607.cactuBSSN_s-2421B.champsimtrace.xz
CPU 1 runs /home/anubhav/spec_2017/607.cactuBSSN_s-2421B.champsimtrace.xz
CPU 2 runs /home/anubhav/spec_2017/607.cactuBSSN_s-2421B.champsimtrace.xz
CPU 3 runs /home/anubhav/spec_2017/607.cactuBSSN_s-2421B.champsimtrace.xz
CPU 4 runs /home/anubhav/spec_2017/607.cactuBSSN_s-2421B.champsimtrace.xz
CPU 5 runs /home/anubhav/spec_2017/607.cactuBSSN_s-2421B.champsimtrace.xz
CPU 6 runs /home/anubhav/spec_2017/607.cactuBSSN_s-2421B.champsimtrace.xz
CPU 7 runs /home/anubhav/spec_2017/607.cactuBSSN_s-2421B.champsimtrace.xz
CPU 0 Bimodal branch predictor
Initialize Hawkeye state
Initialize Hawkeye state
Initialize Hawkeye state
Initialize Hawkeye state
Initialize Hawkeye state
Initialize Hawkeye state
Initialize Hawkeye state
Initialize Hawkeye state
CPU 1 Bimodal branch predictor
Initialize Hawkeye state
Initialize Hawkeye state
Initialize Hawkeye state
Initialize Hawkeye state
Initialize Hawkeye state
Initialize Hawkeye state
Initialize Hawkeye state
Initialize Hawkeye state
CPU 2 Bimodal branch predictor
Initialize Hawkeye state
Initialize Hawkeye state
Initialize Hawkeye state
Initialize Hawkeye state
Initialize Hawkeye state
Initialize Hawkeye state
Initialize Hawkeye state
Initialize Hawkeye state
CPU 3 Bimodal branch predictor
Initialize Hawkeye state
Initialize Hawkeye state
Initialize Hawkeye state
Initialize Hawkeye state
Initialize Hawkeye state
Initialize Hawkeye state
Initialize Hawkeye state
Initialize Hawkeye state
CPU 4 Bimodal branch predictor
Initialize Hawkeye state
Initialize Hawkeye state
Initialize Hawkeye state
Initialize Hawkeye state
Initialize Hawkeye state
Initialize Hawkeye state
Initialize Hawkeye state
Initialize Hawkeye state
CPU 5 Bimodal branch predictor
Initialize Hawkeye state
Initialize Hawkeye state
Initialize Hawkeye state
Initialize Hawkeye state
Initialize Hawkeye state
Initialize Hawkeye state
Initialize Hawkeye state
Initialize Hawkeye state
CPU 6 Bimodal branch predictor
Initialize Hawkeye state
Initialize Hawkeye state
Initialize Hawkeye state
Initialize Hawkeye state
Initialize Hawkeye state
Initialize Hawkeye state
Initialize Hawkeye state
Initialize Hawkeye state
CPU 7 Bimodal branch predictor
Initialize Hawkeye state
Initialize Hawkeye state
Initialize Hawkeye state
Initialize Hawkeye state
Initialize Hawkeye state
Initialize Hawkeye state
Initialize Hawkeye state
Initialize Hawkeye state
Heartbeat CPU 3 instructions: 10000001 cycles: 5478305 heartbeat IPC: 1.82538 cumulative IPC: 1.82538 (Simulation time: 0 hr 30 min 29 sec) 
 Total Blocks : 262144 Invalid Blocks : 89000
Heartbeat CPU 1 instructions: 10000001 cycles: 5479587 heartbeat IPC: 1.82496 cumulative IPC: 1.82496 (Simulation time: 0 hr 30 min 29 sec) 
 Total Blocks : 262144 Invalid Blocks : 88996
Heartbeat CPU 0 instructions: 10000001 cycles: 5479684 heartbeat IPC: 1.82492 cumulative IPC: 1.82492 (Simulation time: 0 hr 30 min 29 sec) 
 Total Blocks : 262144 Invalid Blocks : 88996
Heartbeat CPU 5 instructions: 10000001 cycles: 5479856 heartbeat IPC: 1.82487 cumulative IPC: 1.82487 (Simulation time: 0 hr 30 min 29 sec) 
 Total Blocks : 262144 Invalid Blocks : 88996
Heartbeat CPU 4 instructions: 10000001 cycles: 5479890 heartbeat IPC: 1.82485 cumulative IPC: 1.82485 (Simulation time: 0 hr 30 min 29 sec) 
 Total Blocks : 262144 Invalid Blocks : 88996
Heartbeat CPU 6 instructions: 10000001 cycles: 5479947 heartbeat IPC: 1.82484 cumulative IPC: 1.82484 (Simulation time: 0 hr 30 min 29 sec) 
 Total Blocks : 262144 Invalid Blocks : 88996
Heartbeat CPU 7 instructions: 10000001 cycles: 5479996 heartbeat IPC: 1.82482 cumulative IPC: 1.82482 (Simulation time: 0 hr 30 min 29 sec) 
 Total Blocks : 262144 Invalid Blocks : 88996
Heartbeat CPU 2 instructions: 10000001 cycles: 5480026 heartbeat IPC: 1.82481 cumulative IPC: 1.82481 (Simulation time: 0 hr 30 min 29 sec) 
 Total Blocks : 262144 Invalid Blocks : 88996
Heartbeat CPU 3 instructions: 20000000 cycles: 10967334 heartbeat IPC: 1.82182 cumulative IPC: 1.8236 (Simulation time: 1 hr 1 min 39 sec) 
 Total Blocks : 262144 Invalid Blocks : 35639
Heartbeat CPU 1 instructions: 20000000 cycles: 10968590 heartbeat IPC: 1.82182 cumulative IPC: 1.82339 (Simulation time: 1 hr 1 min 40 sec) 
 Total Blocks : 262144 Invalid Blocks : 35638
Heartbeat CPU 7 instructions: 20000000 cycles: 10968782 heartbeat IPC: 1.8219 cumulative IPC: 1.82336 (Simulation time: 1 hr 1 min 40 sec) 
 Total Blocks : 262144 Invalid Blocks : 35638
Heartbeat CPU 0 instructions: 20000000 cycles: 10968901 heartbeat IPC: 1.82175 cumulative IPC: 1.82334 (Simulation time: 1 hr 1 min 40 sec) 
 Total Blocks : 262144 Invalid Blocks : 35638
Heartbeat CPU 2 instructions: 20000000 cycles: 10969000 heartbeat IPC: 1.82183 cumulative IPC: 1.82332 (Simulation time: 1 hr 1 min 40 sec) 
 Total Blocks : 262144 Invalid Blocks : 35638
Heartbeat CPU 5 instructions: 20000000 cycles: 10969021 heartbeat IPC: 1.82177 cumulative IPC: 1.82332 (Simulation time: 1 hr 1 min 40 sec) 
 Total Blocks : 262144 Invalid Blocks : 35638
Heartbeat CPU 4 instructions: 20000000 cycles: 10969092 heartbeat IPC: 1.82176 cumulative IPC: 1.82331 (Simulation time: 1 hr 1 min 40 sec) 
 Total Blocks : 262144 Invalid Blocks : 35638
Heartbeat CPU 6 instructions: 20000000 cycles: 10969199 heartbeat IPC: 1.82174 cumulative IPC: 1.82329 (Simulation time: 1 hr 1 min 40 sec) 
 Total Blocks : 262144 Invalid Blocks : 35638
Heartbeat CPU 3 instructions: 30000001 cycles: 16446122 heartbeat IPC: 1.82522 cumulative IPC: 1.82414 (Simulation time: 1 hr 32 min 48 sec) 
 Total Blocks : 262144 Invalid Blocks : 14435
Heartbeat CPU 1 instructions: 30000001 cycles: 16447276 heartbeat IPC: 1.82526 cumulative IPC: 1.82401 (Simulation time: 1 hr 32 min 49 sec) 
 Total Blocks : 262144 Invalid Blocks : 14416
Heartbeat CPU 7 instructions: 30000001 cycles: 16447468 heartbeat IPC: 1.82526 cumulative IPC: 1.82399 (Simulation time: 1 hr 32 min 49 sec) 
 Total Blocks : 262144 Invalid Blocks : 14416
Heartbeat CPU 0 instructions: 30000001 cycles: 16447611 heartbeat IPC: 1.82525 cumulative IPC: 1.82397 (Simulation time: 1 hr 32 min 49 sec) 
 Total Blocks : 262144 Invalid Blocks : 14416
Heartbeat CPU 5 instructions: 30000001 cycles: 16447636 heartbeat IPC: 1.82528 cumulative IPC: 1.82397 (Simulation time: 1 hr 32 min 49 sec) 
 Total Blocks : 262144 Invalid Blocks : 14416
Heartbeat CPU 2 instructions: 30000001 cycles: 16447788 heartbeat IPC: 1.82522 cumulative IPC: 1.82395 (Simulation time: 1 hr 32 min 49 sec) 
 Total Blocks : 262144 Invalid Blocks : 14416
Heartbeat CPU 6 instructions: 30000001 cycles: 16447891 heartbeat IPC: 1.82525 cumulative IPC: 1.82394 (Simulation time: 1 hr 32 min 49 sec) 
 Total Blocks : 262144 Invalid Blocks : 14416
Heartbeat CPU 4 instructions: 30000001 cycles: 16447946 heartbeat IPC: 1.8252 cumulative IPC: 1.82394 (Simulation time: 1 hr 32 min 49 sec) 
 Total Blocks : 262144 Invalid Blocks : 14416
Heartbeat CPU 3 instructions: 40000000 cycles: 21925097 heartbeat IPC: 1.82516 cumulative IPC: 1.82439 (Simulation time: 2 hr 4 min 20 sec) 
 Total Blocks : 262144 Invalid Blocks : 5902
Heartbeat CPU 7 instructions: 40000000 cycles: 21926018 heartbeat IPC: 1.8253 cumulative IPC: 1.82432 (Simulation time: 2 hr 4 min 20 sec) 
 Total Blocks : 262144 Invalid Blocks : 5902
Heartbeat CPU 1 instructions: 40000000 cycles: 21926185 heartbeat IPC: 1.82518 cumulative IPC: 1.8243 (Simulation time: 2 hr 4 min 20 sec) 
 Total Blocks : 262144 Invalid Blocks : 5902
Heartbeat CPU 6 instructions: 40000000 cycles: 21926755 heartbeat IPC: 1.8252 cumulative IPC: 1.82426 (Simulation time: 2 hr 4 min 20 sec) 
 Total Blocks : 262144 Invalid Blocks : 5901
Heartbeat CPU 0 instructions: 40000000 cycles: 21926829 heartbeat IPC: 1.82508 cumulative IPC: 1.82425 (Simulation time: 2 hr 4 min 20 sec) 
 Total Blocks : 262144 Invalid Blocks : 5901
Heartbeat CPU 5 instructions: 40000000 cycles: 21926905 heartbeat IPC: 1.82506 cumulative IPC: 1.82424 (Simulation time: 2 hr 4 min 20 sec) 
 Total Blocks : 262144 Invalid Blocks : 5901
Heartbeat CPU 2 instructions: 40000000 cycles: 21926972 heartbeat IPC: 1.82509 cumulative IPC: 1.82424 (Simulation time: 2 hr 4 min 20 sec) 
 Total Blocks : 262144 Invalid Blocks : 5901
Heartbeat CPU 4 instructions: 40000000 cycles: 21927142 heartbeat IPC: 1.82509 cumulative IPC: 1.82422 (Simulation time: 2 hr 4 min 21 sec) 
 Total Blocks : 262144 Invalid Blocks : 5901
Heartbeat CPU 3 instructions: 50000003 cycles: 27404567 heartbeat IPC: 1.82499 cumulative IPC: 1.82451 (Simulation time: 2 hr 35 min 49 sec) 
 Total Blocks : 262144 Invalid Blocks : 2436
Heartbeat CPU 7 instructions: 50000003 cycles: 27405615 heartbeat IPC: 1.82495 cumulative IPC: 1.82444 (Simulation time: 2 hr 35 min 50 sec) 
 Total Blocks : 262144 Invalid Blocks : 2435
Heartbeat CPU 1 instructions: 50000003 cycles: 27405730 heartbeat IPC: 1.82497 cumulative IPC: 1.82444 (Simulation time: 2 hr 35 min 50 sec) 
 Total Blocks : 262144 Invalid Blocks : 2435
Heartbeat CPU 0 instructions: 50000003 cycles: 27406194 heartbeat IPC: 1.82503 cumulative IPC: 1.82441 (Simulation time: 2 hr 35 min 50 sec) 
 Total Blocks : 262144 Invalid Blocks : 2435
Heartbeat CPU 5 instructions: 50000003 cycles: 27406272 heartbeat IPC: 1.82503 cumulative IPC: 1.8244 (Simulation time: 2 hr 35 min 50 sec) 
 Total Blocks : 262144 Invalid Blocks : 2435
Heartbeat CPU 6 instructions: 50000003 cycles: 27406300 heartbeat IPC: 1.82497 cumulative IPC: 1.8244 (Simulation time: 2 hr 35 min 50 sec) 
 Total Blocks : 262144 Invalid Blocks : 2435
Heartbeat CPU 2 instructions: 50000003 cycles: 27406399 heartbeat IPC: 1.82501 cumulative IPC: 1.82439 (Simulation time: 2 hr 35 min 50 sec) 
 Total Blocks : 262144 Invalid Blocks : 2435
Heartbeat CPU 4 instructions: 50000003 cycles: 27406758 heartbeat IPC: 1.82495 cumulative IPC: 1.82437 (Simulation time: 2 hr 35 min 50 sec) 
 Total Blocks : 262144 Invalid Blocks : 2435
Heartbeat CPU 3 instructions: 60000003 cycles: 31640184 heartbeat IPC: 2.36093 cumulative IPC: 1.89632 (Simulation time: 3 hr 7 min 52 sec) 
 Total Blocks : 262144 Invalid Blocks : 207
Heartbeat CPU 7 instructions: 60000003 cycles: 31641476 heartbeat IPC: 2.3608 cumulative IPC: 1.89625 (Simulation time: 3 hr 7 min 52 sec) 
 Total Blocks : 262144 Invalid Blocks : 207
Heartbeat CPU 0 instructions: 60000003 cycles: 31641721 heartbeat IPC: 2.36098 cumulative IPC: 1.89623 (Simulation time: 3 hr 7 min 52 sec) 
 Total Blocks : 262144 Invalid Blocks : 207
Heartbeat CPU 6 instructions: 60000003 cycles: 31641808 heartbeat IPC: 2.36099 cumulative IPC: 1.89623 (Simulation time: 3 hr 7 min 52 sec) 
 Total Blocks : 262144 Invalid Blocks : 207
Heartbeat CPU 2 instructions: 60000003 cycles: 31642422 heartbeat IPC: 2.3607 cumulative IPC: 1.89619 (Simulation time: 3 hr 7 min 53 sec) 
 Total Blocks : 262144 Invalid Blocks : 207
Heartbeat CPU 1 instructions: 60000003 cycles: 31642765 heartbeat IPC: 2.36014 cumulative IPC: 1.89617 (Simulation time: 3 hr 7 min 53 sec) 
 Total Blocks : 262144 Invalid Blocks : 207
Heartbeat CPU 5 instructions: 60000003 cycles: 31642800 heartbeat IPC: 2.36042 cumulative IPC: 1.89617 (Simulation time: 3 hr 7 min 53 sec) 
 Total Blocks : 262144 Invalid Blocks : 207
Heartbeat CPU 4 instructions: 60000003 cycles: 31642846 heartbeat IPC: 2.36067 cumulative IPC: 1.89616 (Simulation time: 3 hr 7 min 53 sec) 
 Total Blocks : 262144 Invalid Blocks : 207
Heartbeat CPU 3 instructions: 70000000 cycles: 35516223 heartbeat IPC: 2.57995 cumulative IPC: 1.97093 (Simulation time: 3 hr 39 min 42 sec) 
 Total Blocks : 262144 Invalid Blocks : 16
Heartbeat CPU 0 instructions: 70000000 cycles: 35517131 heartbeat IPC: 2.58037 cumulative IPC: 1.97088 (Simulation time: 3 hr 39 min 42 sec) 
 Total Blocks : 262144 Invalid Blocks : 16
Heartbeat CPU 6 instructions: 70000000 cycles: 35517495 heartbeat IPC: 2.58019 cumulative IPC: 1.97086 (Simulation time: 3 hr 39 min 42 sec) 
 Total Blocks : 262144 Invalid Blocks : 16
Heartbeat CPU 7 instructions: 70000000 cycles: 35518139 heartbeat IPC: 2.57954 cumulative IPC: 1.97082 (Simulation time: 3 hr 39 min 43 sec) 
 Total Blocks : 262144 Invalid Blocks : 16
Heartbeat CPU 2 instructions: 70000000 cycles: 35518286 heartbeat IPC: 2.58007 cumulative IPC: 1.97082 (Simulation time: 3 hr 39 min 43 sec) 
 Total Blocks : 262144 Invalid Blocks : 16
Heartbeat CPU 1 instructions: 70000000 cycles: 35518361 heartbeat IPC: 2.58025 cumulative IPC: 1.97081 (Simulation time: 3 hr 39 min 43 sec) 
 Total Blocks : 262144 Invalid Blocks : 16
Heartbeat CPU 5 instructions: 70000000 cycles: 35518878 heartbeat IPC: 2.57993 cumulative IPC: 1.97078 (Simulation time: 3 hr 39 min 43 sec) 
 Total Blocks : 262144 Invalid Blocks : 16
Heartbeat CPU 4 instructions: 70000003 cycles: 35519113 heartbeat IPC: 2.5798 cumulative IPC: 1.97077 (Simulation time: 3 hr 39 min 43 sec) 
 Total Blocks : 262144 Invalid Blocks : 16
Heartbeat CPU 3 instructions: 80000002 cycles: 39392485 heartbeat IPC: 2.57981 cumulative IPC: 2.03084 (Simulation time: 4 hr 11 min 29 sec) 
 Total Blocks : 262144 Invalid Blocks : 2
Heartbeat CPU 0 instructions: 80000002 cycles: 39393804 heartbeat IPC: 2.57953 cumulative IPC: 2.03078 (Simulation time: 4 hr 11 min 30 sec) 
 Total Blocks : 262144 Invalid Blocks : 2
Heartbeat CPU 6 instructions: 80000002 cycles: 39394064 heartbeat IPC: 2.5796 cumulative IPC: 2.03076 (Simulation time: 4 hr 11 min 30 sec) 
 Total Blocks : 262144 Invalid Blocks : 2
Heartbeat CPU 2 instructions: 80000002 cycles: 39394404 heartbeat IPC: 2.5799 cumulative IPC: 2.03075 (Simulation time: 4 hr 11 min 30 sec) 
 Total Blocks : 262144 Invalid Blocks : 2
Heartbeat CPU 1 instructions: 80000002 cycles: 39394813 heartbeat IPC: 2.57968 cumulative IPC: 2.03072 (Simulation time: 4 hr 11 min 30 sec) 
 Total Blocks : 262144 Invalid Blocks : 2
Heartbeat CPU 7 instructions: 80000002 cycles: 39394942 heartbeat IPC: 2.57945 cumulative IPC: 2.03072 (Simulation time: 4 hr 11 min 30 sec) 
 Total Blocks : 262144 Invalid Blocks : 2
Heartbeat CPU 5 instructions: 80000002 cycles: 39395571 heartbeat IPC: 2.57952 cumulative IPC: 2.03069 (Simulation time: 4 hr 11 min 30 sec) 
 Total Blocks : 262144 Invalid Blocks : 2
Heartbeat CPU 4 instructions: 80000002 cycles: 39396146 heartbeat IPC: 2.57929 cumulative IPC: 2.03066 (Simulation time: 4 hr 11 min 31 sec) 
 Total Blocks : 262144 Invalid Blocks : 2
Heartbeat CPU 3 instructions: 90000003 cycles: 43271649 heartbeat IPC: 2.57788 cumulative IPC: 2.07988 (Simulation time: 4 hr 45 min 37 sec) 
 Total Blocks : 262144 Invalid Blocks : 0
Heartbeat CPU 6 instructions: 90000003 cycles: 43273083 heartbeat IPC: 2.57797 cumulative IPC: 2.07981 (Simulation time: 4 hr 45 min 38 sec) 
 Total Blocks : 262144 Invalid Blocks : 0
Heartbeat CPU 1 instructions: 90000000 cycles: 43273228 heartbeat IPC: 2.57837 cumulative IPC: 2.07981 (Simulation time: 4 hr 45 min 38 sec) 
 Total Blocks : 262144 Invalid Blocks : 0
Heartbeat CPU 2 instructions: 90000003 cycles: 43273255 heartbeat IPC: 2.57808 cumulative IPC: 2.07981 (Simulation time: 4 hr 45 min 38 sec) 
 Total Blocks : 262144 Invalid Blocks : 0
Heartbeat CPU 0 instructions: 90000003 cycles: 43273321 heartbeat IPC: 2.57764 cumulative IPC: 2.0798 (Simulation time: 4 hr 45 min 38 sec) 
 Total Blocks : 262144 Invalid Blocks : 0
Heartbeat CPU 7 instructions: 90000003 cycles: 43274013 heartbeat IPC: 2.57794 cumulative IPC: 2.07977 (Simulation time: 4 hr 45 min 38 sec) 
 Total Blocks : 262144 Invalid Blocks : 0
Heartbeat CPU 5 instructions: 90000003 cycles: 43274764 heartbeat IPC: 2.57786 cumulative IPC: 2.07973 (Simulation time: 4 hr 45 min 39 sec) 
 Total Blocks : 262144 Invalid Blocks : 0
Heartbeat CPU 4 instructions: 90000003 cycles: 43275479 heartbeat IPC: 2.57776 cumulative IPC: 2.0797 (Simulation time: 4 hr 45 min 39 sec) 
 Total Blocks : 262144 Invalid Blocks : 0
Heartbeat CPU 3 instructions: 100000001 cycles: 47149741 heartbeat IPC: 2.57859 cumulative IPC: 2.1209 (Simulation time: 5 hr 22 min 5 sec) 
 Total Blocks : 262144 Invalid Blocks : 0
Heartbeat CPU 1 instructions: 100000001 cycles: 47150648 heartbeat IPC: 2.57903 cumulative IPC: 2.12086 (Simulation time: 5 hr 22 min 5 sec) 
 Total Blocks : 262144 Invalid Blocks : 0
Heartbeat CPU 6 instructions: 100000001 cycles: 47151279 heartbeat IPC: 2.57852 cumulative IPC: 2.12083 (Simulation time: 5 hr 22 min 5 sec) 
 Total Blocks : 262144 Invalid Blocks : 0
Heartbeat CPU 0 instructions: 100000001 cycles: 47151511 heartbeat IPC: 2.57852 cumulative IPC: 2.12082 (Simulation time: 5 hr 22 min 5 sec) 
 Total Blocks : 262144 Invalid Blocks : 0
Heartbeat CPU 2 instructions: 100000001 cycles: 47151806 heartbeat IPC: 2.57828 cumulative IPC: 2.12081 (Simulation time: 5 hr 22 min 5 sec) 
 Total Blocks : 262144 Invalid Blocks : 0
Heartbeat CPU 7 instructions: 100000001 cycles: 47152654 heartbeat IPC: 2.57822 cumulative IPC: 2.12077 (Simulation time: 5 hr 22 min 6 sec) 
 Total Blocks : 262144 Invalid Blocks : 0
Heartbeat CPU 5 instructions: 100000001 cycles: 47152998 heartbeat IPC: 2.57849 cumulative IPC: 2.12076 (Simulation time: 5 hr 22 min 6 sec) 
 Total Blocks : 262144 Invalid Blocks : 0
Heartbeat CPU 4 instructions: 100000001 cycles: 47153822 heartbeat IPC: 2.57842 cumulative IPC: 2.12072 (Simulation time: 5 hr 22 min 6 sec) 
 Total Blocks : 262144 Invalid Blocks : 0
Heartbeat CPU 3 instructions: 110000000 cycles: 51026275 heartbeat IPC: 2.57962 cumulative IPC: 2.15575 (Simulation time: 5 hr 58 min 38 sec) 
 Total Blocks : 262144 Invalid Blocks : 0
Heartbeat CPU 1 instructions: 110000000 cycles: 51027326 heartbeat IPC: 2.57953 cumulative IPC: 2.15571 (Simulation time: 5 hr 58 min 45 sec) 
 Total Blocks : 262144 Invalid Blocks : 0
Heartbeat CPU 6 instructions: 110000000 cycles: 51028240 heartbeat IPC: 2.57934 cumulative IPC: 2.15567 (Simulation time: 5 hr 58 min 45 sec) 
 Total Blocks : 262144 Invalid Blocks : 0
Heartbeat CPU 2 instructions: 110000000 cycles: 51028275 heartbeat IPC: 2.57967 cumulative IPC: 2.15567 (Simulation time: 5 hr 58 min 45 sec) 
 Total Blocks : 262144 Invalid Blocks : 0
Heartbeat CPU 0 instructions: 110000000 cycles: 51028411 heartbeat IPC: 2.57938 cumulative IPC: 2.15566 (Simulation time: 5 hr 58 min 47 sec) 
 Total Blocks : 262144 Invalid Blocks : 0
Heartbeat CPU 7 instructions: 110000000 cycles: 51029484 heartbeat IPC: 2.57943 cumulative IPC: 2.15562 (Simulation time: 5 hr 58 min 52 sec) 
 Total Blocks : 262144 Invalid Blocks : 0
Heartbeat CPU 5 instructions: 110000000 cycles: 51029837 heartbeat IPC: 2.57942 cumulative IPC: 2.1556 (Simulation time: 5 hr 58 min 52 sec) 
 Total Blocks : 262144 Invalid Blocks : 0
Heartbeat CPU 4 instructions: 110000000 cycles: 51030552 heartbeat IPC: 2.57949 cumulative IPC: 2.15557 (Simulation time: 5 hr 58 min 52 sec) 
 Total Blocks : 262144 Invalid Blocks : 0
Heartbeat CPU 3 instructions: 120000000 cycles: 54901381 heartbeat IPC: 2.58057 cumulative IPC: 2.18574 (Simulation time: 6 hr 37 min 5 sec) 
 Total Blocks : 262144 Invalid Blocks : 0
Heartbeat CPU 1 instructions: 120000000 cycles: 54902736 heartbeat IPC: 2.58037 cumulative IPC: 2.18568 (Simulation time: 6 hr 37 min 5 sec) 
 Total Blocks : 262144 Invalid Blocks : 0
Heartbeat CPU 2 instructions: 120000000 cycles: 54903468 heartbeat IPC: 2.58052 cumulative IPC: 2.18565 (Simulation time: 6 hr 37 min 6 sec) 
 Total Blocks : 262144 Invalid Blocks : 0
Heartbeat CPU 6 instructions: 120000000 cycles: 54903709 heartbeat IPC: 2.58033 cumulative IPC: 2.18564 (Simulation time: 6 hr 37 min 6 sec) 
 Total Blocks : 262144 Invalid Blocks : 0
Heartbeat CPU 0 instructions: 120000000 cycles: 54904104 heartbeat IPC: 2.58018 cumulative IPC: 2.18563 (Simulation time: 6 hr 37 min 6 sec) 
 Total Blocks : 262144 Invalid Blocks : 0
Heartbeat CPU 7 instructions: 120000000 cycles: 54904539 heartbeat IPC: 2.58061 cumulative IPC: 2.18561 (Simulation time: 6 hr 37 min 6 sec) 
 Total Blocks : 262144 Invalid Blocks : 0
Heartbeat CPU 5 instructions: 120000000 cycles: 54904967 heartbeat IPC: 2.58056 cumulative IPC: 2.18559 (Simulation time: 6 hr 37 min 6 sec) 
 Total Blocks : 262144 Invalid Blocks : 0
Heartbeat CPU 4 instructions: 120000000 cycles: 54905926 heartbeat IPC: 2.5804 cumulative IPC: 2.18556 (Simulation time: 6 hr 37 min 6 sec) 
 Total Blocks : 262144 Invalid Blocks : 0
Heartbeat CPU 3 instructions: 130000001 cycles: 58778456 heartbeat IPC: 2.57926 cumulative IPC: 2.21169 (Simulation time: 7 hr 16 min 28 sec) 
 Total Blocks : 262144 Invalid Blocks : 0
Heartbeat CPU 1 instructions: 130000001 cycles: 58779927 heartbeat IPC: 2.57919 cumulative IPC: 2.21164 (Simulation time: 7 hr 16 min 29 sec) 
 Total Blocks : 262144 Invalid Blocks : 0
Heartbeat CPU 6 instructions: 130000001 cycles: 58780131 heartbeat IPC: 2.5797 cumulative IPC: 2.21163 (Simulation time: 7 hr 16 min 29 sec) 
 Total Blocks : 262144 Invalid Blocks : 0
Heartbeat CPU 2 instructions: 130000001 cycles: 58780480 heartbeat IPC: 2.57931 cumulative IPC: 2.21162 (Simulation time: 7 hr 16 min 29 sec) 
 Total Blocks : 262144 Invalid Blocks : 0
Heartbeat CPU 0 instructions: 130000001 cycles: 58780754 heartbeat IPC: 2.57955 cumulative IPC: 2.21161 (Simulation time: 7 hr 16 min 29 sec) 
 Total Blocks : 262144 Invalid Blocks : 0
Heartbeat CPU 5 instructions: 130000001 cycles: 58781535 heartbeat IPC: 2.5796 cumulative IPC: 2.21158 (Simulation time: 7 hr 16 min 29 sec) 
 Total Blocks : 262144 Invalid Blocks : 0
Heartbeat CPU 7 instructions: 130000001 cycles: 58781564 heartbeat IPC: 2.5793 cumulative IPC: 2.21158 (Simulation time: 7 hr 16 min 29 sec) 
 Total Blocks : 262144 Invalid Blocks : 0
Heartbeat CPU 4 instructions: 130000001 cycles: 58783114 heartbeat IPC: 2.57919 cumulative IPC: 2.21152 (Simulation time: 7 hr 16 min 29 sec) 
 Total Blocks : 262144 Invalid Blocks : 0
Heartbeat CPU 3 instructions: 140000002 cycles: 62657223 heartbeat IPC: 2.57814 cumulative IPC: 2.23438 (Simulation time: 7 hr 58 min 46 sec) 
 Total Blocks : 262144 Invalid Blocks : 0
Heartbeat CPU 2 instructions: 140000002 cycles: 62658659 heartbeat IPC: 2.57853 cumulative IPC: 2.23433 (Simulation time: 7 hr 58 min 46 sec) 
 Total Blocks : 262144 Invalid Blocks : 0
Heartbeat CPU 1 instructions: 140000002 cycles: 62658755 heartbeat IPC: 2.5781 cumulative IPC: 2.23432 (Simulation time: 7 hr 58 min 46 sec) 
 Total Blocks : 262144 Invalid Blocks : 0
Heartbeat CPU 6 instructions: 140000002 cycles: 62659085 heartbeat IPC: 2.57801 cumulative IPC: 2.23431 (Simulation time: 7 hr 58 min 46 sec) 
 Total Blocks : 262144 Invalid Blocks : 0
Heartbeat CPU 0 instructions: 140000002 cycles: 62659699 heartbeat IPC: 2.57802 cumulative IPC: 2.23429 (Simulation time: 7 hr 58 min 47 sec) 
 Total Blocks : 262144 Invalid Blocks : 0
Heartbeat CPU 7 instructions: 140000002 cycles: 62660410 heartbeat IPC: 2.57809 cumulative IPC: 2.23427 (Simulation time: 7 hr 58 min 47 sec) 
 Total Blocks : 262144 Invalid Blocks : 0
Heartbeat CPU 5 instructions: 140000002 cycles: 62661009 heartbeat IPC: 2.57767 cumulative IPC: 2.23424 (Simulation time: 7 hr 58 min 47 sec) 
 Total Blocks : 262144 Invalid Blocks : 0
Heartbeat CPU 4 instructions: 140000002 cycles: 62661909 heartbeat IPC: 2.57812 cumulative IPC: 2.23421 (Simulation time: 7 hr 58 min 47 sec) 
 Total Blocks : 262144 Invalid Blocks : 0
Heartbeat CPU 3 instructions: 150000000 cycles: 66533848 heartbeat IPC: 2.57956 cumulative IPC: 2.25449 (Simulation time: 8 hr 35 min 37 sec) 
 Total Blocks : 262144 Invalid Blocks : 0
Heartbeat CPU 1 instructions: 150000000 cycles: 66534624 heartbeat IPC: 2.58007 cumulative IPC: 2.25447 (Simulation time: 8 hr 35 min 38 sec) 
 Total Blocks : 262144 Invalid Blocks : 0
Heartbeat CPU 2 instructions: 150000000 cycles: 66534891 heartbeat IPC: 2.57982 cumulative IPC: 2.25446 (Simulation time: 8 hr 35 min 38 sec) 
 Total Blocks : 262144 Invalid Blocks : 0
Heartbeat CPU 0 instructions: 150000000 cycles: 66536130 heartbeat IPC: 2.57969 cumulative IPC: 2.25441 (Simulation time: 8 hr 35 min 38 sec) 
 Total Blocks : 262144 Invalid Blocks : 0
Heartbeat CPU 6 instructions: 150000000 cycles: 66536348 heartbeat IPC: 2.57914 cumulative IPC: 2.25441 (Simulation time: 8 hr 35 min 38 sec) 
 Total Blocks : 262144 Invalid Blocks : 0
Heartbeat CPU 7 instructions: 150000000 cycles: 66537366 heartbeat IPC: 2.57934 cumulative IPC: 2.25437 (Simulation time: 8 hr 35 min 38 sec) 
 Total Blocks : 262144 Invalid Blocks : 0
Heartbeat CPU 5 instructions: 150000000 cycles: 66538017 heartbeat IPC: 2.57931 cumulative IPC: 2.25435 (Simulation time: 8 hr 35 min 39 sec) 
 Total Blocks : 262144 Invalid Blocks : 0
Heartbeat CPU 4 instructions: 150000000 cycles: 66538665 heartbeat IPC: 2.57948 cumulative IPC: 2.25433 (Simulation time: 8 hr 35 min 39 sec) 
 Total Blocks : 262144 Invalid Blocks : 0
Heartbeat CPU 3 instructions: 160000002 cycles: 70410499 heartbeat IPC: 2.57955 cumulative IPC: 2.27239 (Simulation time: 9 hr 4 min 52 sec) 
 Total Blocks : 262144 Invalid Blocks : 0
Heartbeat CPU 1 instructions: 160000002 cycles: 70410818 heartbeat IPC: 2.57985 cumulative IPC: 2.27238 (Simulation time: 9 hr 4 min 52 sec) 
 Total Blocks : 262144 Invalid Blocks : 0
Heartbeat CPU 2 instructions: 160000002 cycles: 70411218 heartbeat IPC: 2.57976 cumulative IPC: 2.27237 (Simulation time: 9 hr 4 min 52 sec) 
 Total Blocks : 262144 Invalid Blocks : 0
Heartbeat CPU 0 instructions: 160000002 cycles: 70412533 heartbeat IPC: 2.57971 cumulative IPC: 2.27232 (Simulation time: 9 hr 4 min 53 sec) 
 Total Blocks : 262144 Invalid Blocks : 0
Heartbeat CPU 6 instructions: 160000002 cycles: 70413467 heartbeat IPC: 2.57924 cumulative IPC: 2.27229 (Simulation time: 9 hr 4 min 54 sec) 
 Total Blocks : 262144 Invalid Blocks : 0
Heartbeat CPU 7 instructions: 160000002 cycles: 70413692 heartbeat IPC: 2.57976 cumulative IPC: 2.27229 (Simulation time: 9 hr 4 min 54 sec) 
 Total Blocks : 262144 Invalid Blocks : 0
Heartbeat CPU 5 instructions: 160000002 cycles: 70414627 heartbeat IPC: 2.57957 cumulative IPC: 2.27226 (Simulation time: 9 hr 4 min 54 sec) 
 Total Blocks : 262144 Invalid Blocks : 0
Heartbeat CPU 4 instructions: 160000002 cycles: 70415217 heartbeat IPC: 2.57961 cumulative IPC: 2.27224 (Simulation time: 9 hr 4 min 55 sec) 
 Total Blocks : 262144 Invalid Blocks : 0
Heartbeat CPU 1 instructions: 170000002 cycles: 74287186 heartbeat IPC: 2.57973 cumulative IPC: 2.28842 (Simulation time: 9 hr 33 min 44 sec) 
 Total Blocks : 262144 Invalid Blocks : 0
Heartbeat CPU 3 instructions: 170000002 cycles: 74287239 heartbeat IPC: 2.57949 cumulative IPC: 2.28841 (Simulation time: 9 hr 33 min 44 sec) 
 Total Blocks : 262144 Invalid Blocks : 0
Heartbeat CPU 2 instructions: 170000002 cycles: 74287930 heartbeat IPC: 2.57951 cumulative IPC: 2.28839 (Simulation time: 9 hr 33 min 44 sec) 
 Total Blocks : 262144 Invalid Blocks : 0
Heartbeat CPU 0 instructions: 170000002 cycles: 74289340 heartbeat IPC: 2.57944 cumulative IPC: 2.28835 (Simulation time: 9 hr 33 min 44 sec) 
 Total Blocks : 262144 Invalid Blocks : 0
Heartbeat CPU 6 instructions: 170000002 cycles: 74290772 heartbeat IPC: 2.57911 cumulative IPC: 2.28831 (Simulation time: 9 hr 33 min 45 sec) 
 Total Blocks : 262144 Invalid Blocks : 0
Heartbeat CPU 7 instructions: 170000002 cycles: 74290884 heartbeat IPC: 2.57919 cumulative IPC: 2.2883 (Simulation time: 9 hr 33 min 45 sec) 
 Total Blocks : 262144 Invalid Blocks : 0
Heartbeat CPU 5 instructions: 170000002 cycles: 74291158 heartbeat IPC: 2.57963 cumulative IPC: 2.28829 (Simulation time: 9 hr 33 min 45 sec) 
 Total Blocks : 262144 Invalid Blocks : 0
Heartbeat CPU 4 instructions: 170000002 cycles: 74292352 heartbeat IPC: 2.57922 cumulative IPC: 2.28826 (Simulation time: 9 hr 33 min 45 sec) 
 Total Blocks : 262144 Invalid Blocks : 0
Heartbeat CPU 1 instructions: 180000000 cycles: 78162973 heartbeat IPC: 2.58012 cumulative IPC: 2.30288 (Simulation time: 10 hr 2 min 18 sec) 
 Total Blocks : 262144 Invalid Blocks : 0
Heartbeat CPU 3 instructions: 180000000 cycles: 78163387 heartbeat IPC: 2.57988 cumulative IPC: 2.30287 (Simulation time: 10 hr 2 min 18 sec) 
 Total Blocks : 262144 Invalid Blocks : 0
Heartbeat CPU 2 instructions: 180000000 cycles: 78163616 heartbeat IPC: 2.58019 cumulative IPC: 2.30286 (Simulation time: 10 hr 2 min 18 sec) 
 Total Blocks : 262144 Invalid Blocks : 0
Heartbeat CPU 0 instructions: 180000000 cycles: 78165359 heartbeat IPC: 2.57997 cumulative IPC: 2.30281 (Simulation time: 10 hr 2 min 19 sec) 
 Total Blocks : 262144 Invalid Blocks : 0
Heartbeat CPU 7 instructions: 180000000 cycles: 78166890 heartbeat IPC: 2.57997 cumulative IPC: 2.30277 (Simulation time: 10 hr 2 min 19 sec) 
 Total Blocks : 262144 Invalid Blocks : 0
Heartbeat CPU 6 instructions: 180000002 cycles: 78167141 heartbeat IPC: 2.57973 cumulative IPC: 2.30276 (Simulation time: 10 hr 2 min 19 sec) 
 Total Blocks : 262144 Invalid Blocks : 0
Heartbeat CPU 5 instructions: 180000000 cycles: 78167478 heartbeat IPC: 2.57977 cumulative IPC: 2.30275 (Simulation time: 10 hr 2 min 20 sec) 
 Total Blocks : 262144 Invalid Blocks : 0
Heartbeat CPU 4 instructions: 180000000 cycles: 78168505 heartbeat IPC: 2.57988 cumulative IPC: 2.30272 (Simulation time: 10 hr 2 min 20 sec) 
 Total Blocks : 262144 Invalid Blocks : 0
Heartbeat CPU 1 instructions: 190000000 cycles: 82038019 heartbeat IPC: 2.58061 cumulative IPC: 2.316 (Simulation time: 10 hr 31 min 16 sec) 
 Total Blocks : 262144 Invalid Blocks : 0
Heartbeat CPU 3 instructions: 190000000 cycles: 82039482 heartbeat IPC: 2.57992 cumulative IPC: 2.31596 (Simulation time: 10 hr 31 min 17 sec) 
 Total Blocks : 262144 Invalid Blocks : 0
Heartbeat CPU 2 instructions: 190000000 cycles: 82039612 heartbeat IPC: 2.57998 cumulative IPC: 2.31595 (Simulation time: 10 hr 31 min 17 sec) 
 Total Blocks : 262144 Invalid Blocks : 0
Heartbeat CPU 0 instructions: 190000000 cycles: 82040554 heartbeat IPC: 2.58052 cumulative IPC: 2.31593 (Simulation time: 10 hr 31 min 17 sec) 
 Total Blocks : 262144 Invalid Blocks : 0
Heartbeat CPU 6 instructions: 190000000 cycles: 82043089 heartbeat IPC: 2.58001 cumulative IPC: 2.31586 (Simulation time: 10 hr 31 min 18 sec) 
 Total Blocks : 262144 Invalid Blocks : 0
Heartbeat CPU 7 instructions: 190000000 cycles: 82043154 heartbeat IPC: 2.5798 cumulative IPC: 2.31585 (Simulation time: 10 hr 31 min 19 sec) 
 Total Blocks : 262144 Invalid Blocks : 0
Heartbeat CPU 5 instructions: 190000000 cycles: 82043654 heartbeat IPC: 2.57986 cumulative IPC: 2.31584 (Simulation time: 10 hr 31 min 19 sec) 
 Total Blocks : 262144 Invalid Blocks : 0
Heartbeat CPU 4 instructions: 190000000 cycles: 82044744 heartbeat IPC: 2.57982 cumulative IPC: 2.31581 (Simulation time: 10 hr 31 min 19 sec) 
 Total Blocks : 262144 Invalid Blocks : 0
Heartbeat CPU 1 instructions: 200000001 cycles: 85917154 heartbeat IPC: 2.57789 cumulative IPC: 2.32782 (Simulation time: 10 hr 59 min 16 sec) 
 Total Blocks : 262144 Invalid Blocks : 0
Heartbeat CPU 2 instructions: 200000001 cycles: 85918539 heartbeat IPC: 2.57803 cumulative IPC: 2.32779 (Simulation time: 10 hr 59 min 17 sec) 
 Total Blocks : 262144 Invalid Blocks : 0
Heartbeat CPU 3 instructions: 200000001 cycles: 85918721 heartbeat IPC: 2.57783 cumulative IPC: 2.32778 (Simulation time: 10 hr 59 min 17 sec) 
 Total Blocks : 262144 Invalid Blocks : 0
Heartbeat CPU 0 instructions: 200000001 cycles: 85920152 heartbeat IPC: 2.57759 cumulative IPC: 2.32774 (Simulation time: 10 hr 59 min 17 sec) 
 Total Blocks : 262144 Invalid Blocks : 0
Heartbeat CPU 7 instructions: 200000001 cycles: 85921574 heartbeat IPC: 2.57837 cumulative IPC: 2.3277 (Simulation time: 10 hr 59 min 17 sec) 
 Total Blocks : 262144 Invalid Blocks : 0
Heartbeat CPU 6 instructions: 200000001 cycles: 85922751 heartbeat IPC: 2.57754 cumulative IPC: 2.32767 (Simulation time: 10 hr 59 min 18 sec) 
 Total Blocks : 262144 Invalid Blocks : 0
Heartbeat CPU 5 instructions: 200000001 cycles: 85922835 heartbeat IPC: 2.57786 cumulative IPC: 2.32767 (Simulation time: 10 hr 59 min 18 sec) 
 Total Blocks : 262144 Invalid Blocks : 0
Heartbeat CPU 4 instructions: 200000001 cycles: 85924153 heartbeat IPC: 2.57771 cumulative IPC: 2.32763 (Simulation time: 10 hr 59 min 18 sec) 
 Total Blocks : 262144 Invalid Blocks : 0

Warmup complete CPU 0 instructions: 200010287 cycles: 85924153 (Simulation time: 10 hr 59 min 18 sec) 
Warmup complete CPU 1 instructions: 200018016 cycles: 85924153 (Simulation time: 10 hr 59 min 18 sec) 
Warmup complete CPU 2 instructions: 200014368 cycles: 85924153 (Simulation time: 10 hr 59 min 18 sec) 
Warmup complete CPU 3 instructions: 200013811 cycles: 85924153 (Simulation time: 10 hr 59 min 18 sec) 
Warmup complete CPU 4 instructions: 200000001 cycles: 85924153 (Simulation time: 10 hr 59 min 18 sec) 
Warmup complete CPU 5 instructions: 200003422 cycles: 85924152 (Simulation time: 10 hr 59 min 18 sec) 
Warmup complete CPU 6 instructions: 200003540 cycles: 85924152 (Simulation time: 10 hr 59 min 18 sec) 
Warmup complete CPU 7 instructions: 200006658 cycles: 85924152 (Simulation time: 10 hr 59 min 18 sec) 

Heartbeat CPU 1 instructions: 210000002 cycles: 92804912 heartbeat IPC: 1.45185 cumulative IPC: 1.45071 (Simulation time: 11 hr 28 min 40 sec) 
 Total Blocks : 262144 Invalid Blocks : 0
Heartbeat CPU 3 instructions: 210000002 cycles: 92899268 heartbeat IPC: 1.43255 cumulative IPC: 1.43169 (Simulation time: 11 hr 29 min 4 sec) 
 Total Blocks : 262144 Invalid Blocks : 0
Heartbeat CPU 4 instructions: 210000002 cycles: 92905134 heartbeat IPC: 1.43246 cumulative IPC: 1.43246 (Simulation time: 11 hr 29 min 7 sec) 
 Total Blocks : 262144 Invalid Blocks : 0
Heartbeat CPU 5 instructions: 210000002 cycles: 93001861 heartbeat IPC: 1.41262 cumulative IPC: 1.4124 (Simulation time: 11 hr 29 min 28 sec) 
 Total Blocks : 262144 Invalid Blocks : 0
Heartbeat CPU 7 instructions: 210000002 cycles: 93125990 heartbeat IPC: 1.38804 cumulative IPC: 1.38761 (Simulation time: 11 hr 30 min 2 sec) 
 Total Blocks : 262144 Invalid Blocks : 0
Heartbeat CPU 2 instructions: 210000002 cycles: 93157684 heartbeat IPC: 1.38138 cumulative IPC: 1.38046 (Simulation time: 11 hr 30 min 10 sec) 
 Total Blocks : 262144 Invalid Blocks : 0
Heartbeat CPU 6 instructions: 210000002 cycles: 93164153 heartbeat IPC: 1.38095 cumulative IPC: 1.38073 (Simulation time: 11 hr 30 min 12 sec) 
 Total Blocks : 262144 Invalid Blocks : 0
Heartbeat CPU 0 instructions: 210000000 cycles: 93370200 heartbeat IPC: 1.34227 cumulative IPC: 1.34161 (Simulation time: 11 hr 31 min 6 sec) 
 Total Blocks : 262144 Invalid Blocks : 0
Heartbeat CPU 1 instructions: 220000000 cycles: 99795505 heartbeat IPC: 1.43049 cumulative IPC: 1.44052 (Simulation time: 11 hr 58 min 12 sec) 
 Total Blocks : 262144 Invalid Blocks : 0
Heartbeat CPU 3 instructions: 220000000 cycles: 99876706 heartbeat IPC: 1.43319 cumulative IPC: 1.43244 (Simulation time: 11 hr 58 min 34 sec) 
 Total Blocks : 262144 Invalid Blocks : 0
Heartbeat CPU 4 instructions: 220000000 cycles: 99947679 heartbeat IPC: 1.41994 cumulative IPC: 1.42617 (Simulation time: 11 hr 58 min 54 sec) 
 Total Blocks : 262144 Invalid Blocks : 0
Heartbeat CPU 6 instructions: 220000000 cycles: 100292377 heartbeat IPC: 1.40287 cumulative IPC: 1.39171 (Simulation time: 12 hr 0 min 21 sec) 
 Total Blocks : 262144 Invalid Blocks : 0
Heartbeat CPU 2 instructions: 220000000 cycles: 100369611 heartbeat IPC: 1.38659 cumulative IPC: 1.38352 (Simulation time: 12 hr 0 min 45 sec) 
 Total Blocks : 262144 Invalid Blocks : 0
Heartbeat CPU 7 instructions: 220000000 cycles: 100378942 heartbeat IPC: 1.37875 cumulative IPC: 1.38316 (Simulation time: 12 hr 0 min 47 sec) 
 Total Blocks : 262144 Invalid Blocks : 0
Heartbeat CPU 5 instructions: 220000000 cycles: 100461343 heartbeat IPC: 1.34058 cumulative IPC: 1.37555 (Simulation time: 12 hr 1 min 7 sec) 
 Total Blocks : 262144 Invalid Blocks : 0
Heartbeat CPU 0 instructions: 220000000 cycles: 100551547 heartbeat IPC: 1.3925 cumulative IPC: 1.36659 (Simulation time: 12 hr 1 min 30 sec) 
 Total Blocks : 262144 Invalid Blocks : 0
Heartbeat CPU 3 instructions: 230000001 cycles: 106872847 heartbeat IPC: 1.42936 cumulative IPC: 1.43141 (Simulation time: 12 hr 27 min 37 sec) 
 Total Blocks : 262144 Invalid Blocks : 0
Heartbeat CPU 4 instructions: 230000001 cycles: 106931991 heartbeat IPC: 1.43178 cumulative IPC: 1.42804 (Simulation time: 12 hr 27 min 53 sec) 
 Total Blocks : 262144 Invalid Blocks : 0
Heartbeat CPU 1 instructions: 230000000 cycles: 107002398 heartbeat IPC: 1.38756 cumulative IPC: 1.42241 (Simulation time: 12 hr 28 min 16 sec) 
 Total Blocks : 262144 Invalid Blocks : 0
Heartbeat CPU 6 instructions: 230000001 cycles: 107616246 heartbeat IPC: 1.3654 cumulative IPC: 1.38283 (Simulation time: 12 hr 30 min 47 sec) 
 Total Blocks : 262144 Invalid Blocks : 0
Heartbeat CPU 0 instructions: 230000001 cycles: 107795943 heartbeat IPC: 1.38038 cumulative IPC: 1.37116 (Simulation time: 12 hr 31 min 31 sec) 
 Total Blocks : 262144 Invalid Blocks : 0
Heartbeat CPU 7 instructions: 230000000 cycles: 107836769 heartbeat IPC: 1.34087 cumulative IPC: 1.36877 (Simulation time: 12 hr 31 min 41 sec) 
 Total Blocks : 262144 Invalid Blocks : 0
Heartbeat CPU 2 instructions: 230000000 cycles: 107904748 heartbeat IPC: 1.32712 cumulative IPC: 1.36419 (Simulation time: 12 hr 31 min 58 sec) 
 Total Blocks : 262144 Invalid Blocks : 0
Heartbeat CPU 5 instructions: 230000001 cycles: 107972275 heartbeat IPC: 1.33139 cumulative IPC: 1.3605 (Simulation time: 12 hr 32 min 15 sec) 
 Total Blocks : 262144 Invalid Blocks : 0
Heartbeat CPU 3 instructions: 240000003 cycles: 114022407 heartbeat IPC: 1.39869 cumulative IPC: 1.42308 (Simulation time: 12 hr 58 min 52 sec) 
 Total Blocks : 262144 Invalid Blocks : 0
Heartbeat CPU 4 instructions: 240000003 cycles: 114099240 heartbeat IPC: 1.39524 cumulative IPC: 1.41969 (Simulation time: 12 hr 59 min 19 sec) 
 Total Blocks : 262144 Invalid Blocks : 0
Heartbeat CPU 1 instructions: 240000003 cycles: 114457880 heartbeat IPC: 1.3413 cumulative IPC: 1.40122 (Simulation time: 13 hr 1 min 33 sec) 
 Total Blocks : 262144 Invalid Blocks : 0
Heartbeat CPU 6 instructions: 240000003 cycles: 115033345 heartbeat IPC: 1.34824 cumulative IPC: 1.37401 (Simulation time: 13 hr 4 min 4 sec) 
 Total Blocks : 262144 Invalid Blocks : 0
Heartbeat CPU 0 instructions: 240000003 cycles: 115159956 heartbeat IPC: 1.35796 cumulative IPC: 1.36783 (Simulation time: 13 hr 4 min 36 sec) 
 Total Blocks : 262144 Invalid Blocks : 0
Heartbeat CPU 7 instructions: 240000003 cycles: 115200627 heartbeat IPC: 1.35798 cumulative IPC: 1.36606 (Simulation time: 13 hr 4 min 48 sec) 
 Total Blocks : 262144 Invalid Blocks : 0
Heartbeat CPU 5 instructions: 240000003 cycles: 115312381 heartbeat IPC: 1.36238 cumulative IPC: 1.36097 (Simulation time: 13 hr 5 min 18 sec) 
 Total Blocks : 262144 Invalid Blocks : 0
Heartbeat CPU 2 instructions: 240000003 cycles: 115471680 heartbeat IPC: 1.32154 cumulative IPC: 1.35327 (Simulation time: 13 hr 6 min 1 sec) 
 Total Blocks : 262144 Invalid Blocks : 0
Heartbeat CPU 3 instructions: 250000002 cycles: 121052073 heartbeat IPC: 1.42254 cumulative IPC: 1.42298 (Simulation time: 13 hr 28 min 18 sec) 
 Total Blocks : 262144 Invalid Blocks : 0
Heartbeat CPU 4 instructions: 250000003 cycles: 121463340 heartbeat IPC: 1.35794 cumulative IPC: 1.4069 (Simulation time: 13 hr 29 min 51 sec) 
 Total Blocks : 262144 Invalid Blocks : 0
Heartbeat CPU 1 instructions: 250000002 cycles: 121912551 heartbeat IPC: 1.34144 cumulative IPC: 1.38884 (Simulation time: 13 hr 31 min 37 sec) 
 Total Blocks : 262144 Invalid Blocks : 0
Heartbeat CPU 7 instructions: 250000002 cycles: 122429978 heartbeat IPC: 1.38325 cumulative IPC: 1.36946 (Simulation time: 13 hr 33 min 35 sec) 
 Total Blocks : 262144 Invalid Blocks : 0
Heartbeat CPU 0 instructions: 250000002 cycles: 122457703 heartbeat IPC: 1.37029 cumulative IPC: 1.36832 (Simulation time: 13 hr 33 min 43 sec) 
 Total Blocks : 262144 Invalid Blocks : 0
Heartbeat CPU 6 instructions: 250000002 cycles: 122519412 heartbeat IPC: 1.33581 cumulative IPC: 1.3662 (Simulation time: 13 hr 33 min 59 sec) 
 Total Blocks : 262144 Invalid Blocks : 0
Heartbeat CPU 2 instructions: 250000003 cycles: 122760975 heartbeat IPC: 1.37187 cumulative IPC: 1.35695 (Simulation time: 13 hr 35 min 0 sec) 
 Total Blocks : 262144 Invalid Blocks : 0
Heartbeat CPU 5 instructions: 250000003 cycles: 123038718 heartbeat IPC: 1.29427 cumulative IPC: 1.34709 (Simulation time: 13 hr 36 min 6 sec) 
 Total Blocks : 262144 Invalid Blocks : 0
Heartbeat CPU 3 instructions: 260000000 cycles: 128027570 heartbeat IPC: 1.43359 cumulative IPC: 1.42473 (Simulation time: 13 hr 55 min 37 sec) 
 Total Blocks : 262144 Invalid Blocks : 0
Heartbeat CPU 4 instructions: 260000000 cycles: 128792519 heartbeat IPC: 1.36441 cumulative IPC: 1.39963 (Simulation time: 13 hr 58 min 37 sec) 
 Total Blocks : 262144 Invalid Blocks : 0
Heartbeat CPU 1 instructions: 260000001 cycles: 129152175 heartbeat IPC: 1.38129 cumulative IPC: 1.38757 (Simulation time: 14 hr 0 min 6 sec) 
 Total Blocks : 262144 Invalid Blocks : 0
Heartbeat CPU 0 instructions: 260000000 cycles: 129577753 heartbeat IPC: 1.40448 cumulative IPC: 1.37422 (Simulation time: 14 hr 1 min 44 sec) 
 Total Blocks : 262144 Invalid Blocks : 0
Heartbeat CPU 7 instructions: 260000000 cycles: 129734010 heartbeat IPC: 1.36911 cumulative IPC: 1.3694 (Simulation time: 14 hr 2 min 27 sec) 
 Total Blocks : 262144 Invalid Blocks : 0
Heartbeat CPU 6 instructions: 260000000 cycles: 129788392 heartbeat IPC: 1.37571 cumulative IPC: 1.36778 (Simulation time: 14 hr 2 min 38 sec) 
 Total Blocks : 262144 Invalid Blocks : 0
Heartbeat CPU 2 instructions: 260000000 cycles: 130051332 heartbeat IPC: 1.37167 cumulative IPC: 1.35938 (Simulation time: 14 hr 3 min 36 sec) 
 Total Blocks : 262144 Invalid Blocks : 0
Heartbeat CPU 5 instructions: 260000000 cycles: 130341946 heartbeat IPC: 1.36926 cumulative IPC: 1.35073 (Simulation time: 14 hr 4 min 50 sec) 
 Total Blocks : 262144 Invalid Blocks : 0
Heartbeat CPU 3 instructions: 270000002 cycles: 135147979 heartbeat IPC: 1.40441 cumulative IPC: 1.4218 (Simulation time: 14 hr 23 min 55 sec) 
 Total Blocks : 262144 Invalid Blocks : 0
Heartbeat CPU 4 instructions: 270000002 cycles: 135955431 heartbeat IPC: 1.39608 cumulative IPC: 1.39912 (Simulation time: 14 hr 26 min 59 sec) 
 Total Blocks : 262144 Invalid Blocks : 0
Heartbeat CPU 1 instructions: 270000003 cycles: 136692514 heartbeat IPC: 1.3262 cumulative IPC: 1.37846 (Simulation time: 14 hr 30 min 3 sec) 
 Total Blocks : 262144 Invalid Blocks : 0
Heartbeat CPU 0 instructions: 270000002 cycles: 136849832 heartbeat IPC: 1.37512 cumulative IPC: 1.37435 (Simulation time: 14 hr 30 min 43 sec) 
 Total Blocks : 262144 Invalid Blocks : 0
Heartbeat CPU 6 instructions: 270000002 cycles: 137081098 heartbeat IPC: 1.37123 cumulative IPC: 1.36827 (Simulation time: 14 hr 31 min 32 sec) 
 Total Blocks : 262144 Invalid Blocks : 0
Heartbeat CPU 7 instructions: 270000003 cycles: 137208334 heartbeat IPC: 1.33791 cumulative IPC: 1.36481 (Simulation time: 14 hr 31 min 59 sec) 
 Total Blocks : 262144 Invalid Blocks : 0
Heartbeat CPU 2 instructions: 270000002 cycles: 137289792 heartbeat IPC: 1.38151 cumulative IPC: 1.3625 (Simulation time: 14 hr 32 min 22 sec) 
 Total Blocks : 262144 Invalid Blocks : 0
Heartbeat CPU 5 instructions: 270000002 cycles: 137531371 heartbeat IPC: 1.39093 cumulative IPC: 1.35633 (Simulation time: 14 hr 33 min 20 sec) 
 Total Blocks : 262144 Invalid Blocks : 0
Heartbeat CPU 3 instructions: 280000000 cycles: 142170750 heartbeat IPC: 1.42394 cumulative IPC: 1.42206 (Simulation time: 14 hr 51 min 54 sec) 
 Total Blocks : 262144 Invalid Blocks : 0
Heartbeat CPU 4 instructions: 280000000 cycles: 143045619 heartbeat IPC: 1.4104 cumulative IPC: 1.40052 (Simulation time: 14 hr 55 min 29 sec) 
 Total Blocks : 262144 Invalid Blocks : 0
Heartbeat CPU 0 instructions: 280000000 cycles: 144184151 heartbeat IPC: 1.36345 cumulative IPC: 1.37298 (Simulation time: 15 hr 0 min 6 sec) 
 Total Blocks : 262144 Invalid Blocks : 0
Heartbeat CPU 7 instructions: 280000000 cycles: 144265766 heartbeat IPC: 1.41695 cumulative IPC: 1.37112 (Simulation time: 15 hr 0 min 23 sec) 
 Total Blocks : 262144 Invalid Blocks : 0
Heartbeat CPU 1 instructions: 280000000 cycles: 144355343 heartbeat IPC: 1.305 cumulative IPC: 1.36882 (Simulation time: 15 hr 0 min 47 sec) 
 Total Blocks : 262144 Invalid Blocks : 0
Heartbeat CPU 6 instructions: 280000000 cycles: 144378658 heartbeat IPC: 1.37032 cumulative IPC: 1.36853 (Simulation time: 15 hr 0 min 54 sec) 
 Total Blocks : 262144 Invalid Blocks : 0
Heartbeat CPU 5 instructions: 280000000 cycles: 144574458 heartbeat IPC: 1.41983 cumulative IPC: 1.36396 (Simulation time: 15 hr 1 min 35 sec) 
 Total Blocks : 262144 Invalid Blocks : 0
Heartbeat CPU 2 instructions: 280000000 cycles: 144705959 heartbeat IPC: 1.34841 cumulative IPC: 1.36072 (Simulation time: 15 hr 2 min 9 sec) 
 Total Blocks : 262144 Invalid Blocks : 0
Heartbeat CPU 3 instructions: 290000000 cycles: 149169069 heartbeat IPC: 1.42891 cumulative IPC: 1.42282 (Simulation time: 15 hr 20 min 25 sec) 
 Total Blocks : 262144 Invalid Blocks : 0
Heartbeat CPU 4 instructions: 290000000 cycles: 149984963 heartbeat IPC: 1.44106 cumulative IPC: 1.40492 (Simulation time: 15 hr 23 min 48 sec) 
 Total Blocks : 262144 Invalid Blocks : 0
Heartbeat CPU 7 instructions: 290000000 cycles: 151259304 heartbeat IPC: 1.42989 cumulative IPC: 1.37741 (Simulation time: 15 hr 28 min 52 sec) 
 Total Blocks : 262144 Invalid Blocks : 0
Heartbeat CPU 1 instructions: 290000000 cycles: 151343513 heartbeat IPC: 1.43099 cumulative IPC: 1.37546 (Simulation time: 15 hr 29 min 8 sec) 
 Total Blocks : 262144 Invalid Blocks : 0
Heartbeat CPU 6 instructions: 290000000 cycles: 151530050 heartbeat IPC: 1.39833 cumulative IPC: 1.37177 (Simulation time: 15 hr 29 min 47 sec) 
 Total Blocks : 262144 Invalid Blocks : 0
Heartbeat CPU 0 instructions: 290000000 cycles: 151545382 heartbeat IPC: 1.35847 cumulative IPC: 1.37135 (Simulation time: 15 hr 29 min 51 sec) 
 Total Blocks : 262144 Invalid Blocks : 0
Heartbeat CPU 5 instructions: 290000000 cycles: 151601726 heartbeat IPC: 1.42303 cumulative IPC: 1.37028 (Simulation time: 15 hr 30 min 2 sec) 
 Total Blocks : 262144 Invalid Blocks : 0
Heartbeat CPU 2 instructions: 290000000 cycles: 151998104 heartbeat IPC: 1.37134 cumulative IPC: 1.36189 (Simulation time: 15 hr 31 min 42 sec) 
 Total Blocks : 262144 Invalid Blocks : 0
Heartbeat CPU 3 instructions: 300000002 cycles: 156185060 heartbeat IPC: 1.42532 cumulative IPC: 1.42307 (Simulation time: 15 hr 48 min 19 sec) 
 Total Blocks : 262144 Invalid Blocks : 0
Heartbeat CPU 4 instructions: 300000002 cycles: 157010990 heartbeat IPC: 1.42328 cumulative IPC: 1.40673 (Simulation time: 15 hr 51 min 39 sec) 
 Total Blocks : 262144 Invalid Blocks : 0
Heartbeat CPU 1 instructions: 300000000 cycles: 158409592 heartbeat IPC: 1.41521 cumulative IPC: 1.37934 (Simulation time: 15 hr 57 min 13 sec) 
 Total Blocks : 262144 Invalid Blocks : 0
Heartbeat CPU 7 instructions: 300000002 cycles: 158494830 heartbeat IPC: 1.38207 cumulative IPC: 1.37788 (Simulation time: 15 hr 57 min 29 sec) 
 Total Blocks : 262144 Invalid Blocks : 0
Heartbeat CPU 6 instructions: 300000000 cycles: 158723439 heartbeat IPC: 1.39017 cumulative IPC: 1.37359 (Simulation time: 15 hr 58 min 23 sec) 
 Total Blocks : 262144 Invalid Blocks : 0
Heartbeat CPU 5 instructions: 300000000 cycles: 158839342 heartbeat IPC: 1.38167 cumulative IPC: 1.37141 (Simulation time: 15 hr 58 min 51 sec) 
 Total Blocks : 262144 Invalid Blocks : 0
Heartbeat CPU 0 instructions: 300000000 cycles: 158925752 heartbeat IPC: 1.35495 cumulative IPC: 1.36969 (Simulation time: 15 hr 59 min 12 sec) 
 Total Blocks : 262144 Invalid Blocks : 0
Heartbeat CPU 2 instructions: 300000002 cycles: 159379108 heartbeat IPC: 1.35483 cumulative IPC: 1.36118 (Simulation time: 16 hr 1 min 1 sec) 
 Total Blocks : 262144 Invalid Blocks : 0
Heartbeat CPU 3 instructions: 310000000 cycles: 163103858 heartbeat IPC: 1.44534 cumulative IPC: 1.42507 (Simulation time: 16 hr 16 min 4 sec) 
 Total Blocks : 262144 Invalid Blocks : 0
Heartbeat CPU 4 instructions: 310000000 cycles: 163975456 heartbeat IPC: 1.43586 cumulative IPC: 1.40933 (Simulation time: 16 hr 19 min 42 sec) 
 Total Blocks : 262144 Invalid Blocks : 0
Heartbeat CPU 1 instructions: 310000000 cycles: 165575188 heartbeat IPC: 1.39556 cumulative IPC: 1.3808 (Simulation time: 16 hr 26 min 10 sec) 
 Total Blocks : 262144 Invalid Blocks : 0
Heartbeat CPU 7 instructions: 310000000 cycles: 165788067 heartbeat IPC: 1.37113 cumulative IPC: 1.37726 (Simulation time: 16 hr 27 min 2 sec) 
 Total Blocks : 262144 Invalid Blocks : 0
Heartbeat CPU 6 instructions: 310000000 cycles: 166148508 heartbeat IPC: 1.34679 cumulative IPC: 1.37111 (Simulation time: 16 hr 28 min 21 sec) 
 Total Blocks : 262144 Invalid Blocks : 0
Heartbeat CPU 0 instructions: 310000000 cycles: 166150256 heartbeat IPC: 1.38418 cumulative IPC: 1.371 (Simulation time: 16 hr 28 min 21 sec) 
 Total Blocks : 262144 Invalid Blocks : 0
Heartbeat CPU 5 instructions: 310000000 cycles: 166178630 heartbeat IPC: 1.36253 cumulative IPC: 1.3706 (Simulation time: 16 hr 28 min 26 sec) 
 Total Blocks : 262144 Invalid Blocks : 0
Heartbeat CPU 2 instructions: 310000000 cycles: 166588420 heartbeat IPC: 1.38709 cumulative IPC: 1.3635 (Simulation time: 16 hr 30 min 10 sec) 
 Total Blocks : 262144 Invalid Blocks : 0
Heartbeat CPU 3 instructions: 320000001 cycles: 170151054 heartbeat IPC: 1.419 cumulative IPC: 1.42456 (Simulation time: 16 hr 44 min 56 sec) 
 Total Blocks : 262144 Invalid Blocks : 0
Heartbeat CPU 4 instructions: 320000001 cycles: 170925765 heartbeat IPC: 1.43879 cumulative IPC: 1.41174 (Simulation time: 16 hr 47 min 56 sec) 
 Total Blocks : 262144 Invalid Blocks : 0
Heartbeat CPU 1 instructions: 320000000 cycles: 172930059 heartbeat IPC: 1.35964 cumulative IPC: 1.37901 (Simulation time: 16 hr 56 min 12 sec) 
 Total Blocks : 262144 Invalid Blocks : 0
Heartbeat CPU 7 instructions: 320000000 cycles: 173157639 heartbeat IPC: 1.35693 cumulative IPC: 1.37554 (Simulation time: 16 hr 57 min 4 sec) 
 Total Blocks : 262144 Invalid Blocks : 0
Heartbeat CPU 0 instructions: 320000001 cycles: 173422466 heartbeat IPC: 1.3751 cumulative IPC: 1.37134 (Simulation time: 16 hr 58 min 1 sec) 
 Total Blocks : 262144 Invalid Blocks : 0
Heartbeat CPU 6 instructions: 320000002 cycles: 173490188 heartbeat IPC: 1.36209 cumulative IPC: 1.37035 (Simulation time: 16 hr 58 min 18 sec) 
 Total Blocks : 262144 Invalid Blocks : 0
Heartbeat CPU 5 instructions: 320000000 cycles: 173662453 heartbeat IPC: 1.33622 cumulative IPC: 1.36766 (Simulation time: 16 hr 58 min 57 sec) 
 Total Blocks : 262144 Invalid Blocks : 0
Heartbeat CPU 2 instructions: 320000001 cycles: 173862162 heartbeat IPC: 1.37481 cumulative IPC: 1.36443 (Simulation time: 16 hr 59 min 41 sec) 
 Total Blocks : 262144 Invalid Blocks : 0
Heartbeat CPU 3 instructions: 330000000 cycles: 177110040 heartbeat IPC: 1.43699 cumulative IPC: 1.42551 (Simulation time: 17 hr 12 min 59 sec) 
 Total Blocks : 262144 Invalid Blocks : 0
Heartbeat CPU 4 instructions: 330000000 cycles: 177960853 heartbeat IPC: 1.42145 cumulative IPC: 1.41248 (Simulation time: 17 hr 16 min 31 sec) 
 Total Blocks : 262144 Invalid Blocks : 0
Heartbeat CPU 1 instructions: 330000000 cycles: 180260113 heartbeat IPC: 1.36425 cumulative IPC: 1.37786 (Simulation time: 17 hr 26 min 46 sec) 
 Total Blocks : 262144 Invalid Blocks : 0
Heartbeat CPU 0 instructions: 330000000 cycles: 180463141 heartbeat IPC: 1.42032 cumulative IPC: 1.37499 (Simulation time: 17 hr 27 min 28 sec) 
 Total Blocks : 262144 Invalid Blocks : 0
Heartbeat CPU 7 instructions: 330000000 cycles: 180628829 heartbeat IPC: 1.33847 cumulative IPC: 1.37262 (Simulation time: 17 hr 28 min 9 sec) 
 Total Blocks : 262144 Invalid Blocks : 0
Heartbeat CPU 6 instructions: 330000000 cycles: 180714321 heartbeat IPC: 1.38425 cumulative IPC: 1.37141 (Simulation time: 17 hr 28 min 31 sec) 
 Total Blocks : 262144 Invalid Blocks : 0
Heartbeat CPU 2 instructions: 330000000 cycles: 181132333 heartbeat IPC: 1.37548 cumulative IPC: 1.36528 (Simulation time: 17 hr 30 min 20 sec) 
 Total Blocks : 262144 Invalid Blocks : 0
Heartbeat CPU 5 instructions: 330000000 cycles: 181137694 heartbeat IPC: 1.33775 cumulative IPC: 1.36532 (Simulation time: 17 hr 30 min 22 sec) 
 Total Blocks : 262144 Invalid Blocks : 0
Heartbeat CPU 3 instructions: 340000002 cycles: 184361946 heartbeat IPC: 1.37895 cumulative IPC: 1.42208 (Simulation time: 17 hr 44 min 43 sec) 
 Total Blocks : 262144 Invalid Blocks : 0
Heartbeat CPU 4 instructions: 340000002 cycles: 185409818 heartbeat IPC: 1.34247 cumulative IPC: 1.40724 (Simulation time: 17 hr 49 min 5 sec) 
 Total Blocks : 262144 Invalid Blocks : 0
Heartbeat CPU 7 instructions: 340000002 cycles: 187936012 heartbeat IPC: 1.36852 cumulative IPC: 1.37232 (Simulation time: 17 hr 58 min 52 sec) 
 Total Blocks : 262144 Invalid Blocks : 0
Heartbeat CPU 0 instructions: 340000002 cycles: 187941110 heartbeat IPC: 1.33726 cumulative IPC: 1.37222 (Simulation time: 17 hr 58 min 54 sec) 
 Total Blocks : 262144 Invalid Blocks : 0
Heartbeat CPU 1 instructions: 340000002 cycles: 188005043 heartbeat IPC: 1.29117 cumulative IPC: 1.37128 (Simulation time: 17 hr 59 min 10 sec) 
 Total Blocks : 262144 Invalid Blocks : 0
Heartbeat CPU 6 instructions: 340000002 cycles: 188351196 heartbeat IPC: 1.30944 cumulative IPC: 1.36679 (Simulation time: 18 hr 0 min 38 sec) 
 Total Blocks : 262144 Invalid Blocks : 0
Heartbeat CPU 2 instructions: 340000002 cycles: 188736182 heartbeat IPC: 1.31512 cumulative IPC: 1.36157 (Simulation time: 18 hr 2 min 16 sec) 
 Total Blocks : 262144 Invalid Blocks : 0
Heartbeat CPU 5 instructions: 340000002 cycles: 188960479 heartbeat IPC: 1.27832 cumulative IPC: 1.35871 (Simulation time: 18 hr 3 min 4 sec) 
 Total Blocks : 262144 Invalid Blocks : 0
Heartbeat CPU 3 instructions: 350000003 cycles: 191398176 heartbeat IPC: 1.42122 cumulative IPC: 1.42202 (Simulation time: 18 hr 12 min 50 sec) 
 Total Blocks : 262144 Invalid Blocks : 0
Heartbeat CPU 4 instructions: 350000003 cycles: 192739245 heartbeat IPC: 1.36436 cumulative IPC: 1.4043 (Simulation time: 18 hr 18 min 10 sec) 
 Total Blocks : 262144 Invalid Blocks : 0
Heartbeat CPU 7 instructions: 350000003 cycles: 195033169 heartbeat IPC: 1.40902 cumulative IPC: 1.37471 (Simulation time: 18 hr 27 min 29 sec) 
 Total Blocks : 262144 Invalid Blocks : 0
Heartbeat CPU 0 instructions: 350000003 cycles: 195192276 heartbeat IPC: 1.37909 cumulative IPC: 1.37268 (Simulation time: 18 hr 28 min 10 sec) 
 Total Blocks : 262144 Invalid Blocks : 0
Heartbeat CPU 6 instructions: 350000003 cycles: 195501864 heartbeat IPC: 1.39847 cumulative IPC: 1.36886 (Simulation time: 18 hr 29 min 14 sec) 
 Total Blocks : 262144 Invalid Blocks : 0
Heartbeat CPU 1 instructions: 350000003 cycles: 195577231 heartbeat IPC: 1.32062 cumulative IPC: 1.36779 (Simulation time: 18 hr 29 min 35 sec) 
 Total Blocks : 262144 Invalid Blocks : 0
Heartbeat CPU 2 instructions: 350000003 cycles: 196084993 heartbeat IPC: 1.36076 cumulative IPC: 1.36152 (Simulation time: 18 hr 31 min 48 sec) 
 Total Blocks : 262144 Invalid Blocks : 0
Heartbeat CPU 5 instructions: 350000003 cycles: 196200871 heartbeat IPC: 1.38114 cumulative IPC: 1.36018 (Simulation time: 18 hr 32 min 11 sec) 
 Total Blocks : 262144 Invalid Blocks : 0
Heartbeat CPU 3 instructions: 360000002 cycles: 198437534 heartbeat IPC: 1.42058 cumulative IPC: 1.42193 (Simulation time: 18 hr 41 min 22 sec) 
 Total Blocks : 262144 Invalid Blocks : 0
Heartbeat CPU 4 instructions: 360000002 cycles: 199920056 heartbeat IPC: 1.3926 cumulative IPC: 1.40356 (Simulation time: 18 hr 46 min 58 sec) 
 Total Blocks : 262144 Invalid Blocks : 0
Heartbeat CPU 7 instructions: 360000002 cycles: 202297848 heartbeat IPC: 1.37652 cumulative IPC: 1.37482 (Simulation time: 18 hr 56 min 40 sec) 
 Total Blocks : 262144 Invalid Blocks : 0
Heartbeat CPU 0 instructions: 360000002 cycles: 202411651 heartbeat IPC: 1.38516 cumulative IPC: 1.37345 (Simulation time: 18 hr 57 min 6 sec) 
 Total Blocks : 262144 Invalid Blocks : 0
Heartbeat CPU 6 instructions: 360000002 cycles: 202670544 heartbeat IPC: 1.39496 cumulative IPC: 1.37046 (Simulation time: 18 hr 58 min 1 sec) 
 Total Blocks : 262144 Invalid Blocks : 0
Heartbeat CPU 1 instructions: 360000002 cycles: 203117921 heartbeat IPC: 1.32614 cumulative IPC: 1.36511 (Simulation time: 18 hr 59 min 56 sec) 
 Total Blocks : 262144 Invalid Blocks : 0
Heartbeat CPU 5 instructions: 360000002 cycles: 203326236 heartbeat IPC: 1.40344 cumulative IPC: 1.36281 (Simulation time: 19 hr 0 min 37 sec) 
 Total Blocks : 262144 Invalid Blocks : 0
Heartbeat CPU 2 instructions: 360000002 cycles: 203340902 heartbeat IPC: 1.37819 cumulative IPC: 1.36255 (Simulation time: 19 hr 0 min 39 sec) 
 Total Blocks : 262144 Invalid Blocks : 0
Heartbeat CPU 3 instructions: 370000003 cycles: 205428198 heartbeat IPC: 1.43048 cumulative IPC: 1.42243 (Simulation time: 19 hr 9 min 11 sec) 
 Total Blocks : 262144 Invalid Blocks : 0
Heartbeat CPU 4 instructions: 370000003 cycles: 207034373 heartbeat IPC: 1.40562 cumulative IPC: 1.40368 (Simulation time: 19 hr 15 min 21 sec) 
 Total Blocks : 262144 Invalid Blocks : 0
Heartbeat CPU 7 instructions: 370000003 cycles: 209414564 heartbeat IPC: 1.40514 cumulative IPC: 1.37657 (Simulation time: 19 hr 25 min 5 sec) 
 Total Blocks : 262144 Invalid Blocks : 0
Heartbeat CPU 0 instructions: 370000003 cycles: 209959033 heartbeat IPC: 1.32496 cumulative IPC: 1.3705 (Simulation time: 19 hr 27 min 6 sec) 
 Total Blocks : 262144 Invalid Blocks : 0
Heartbeat CPU 6 instructions: 370000003 cycles: 209966448 heartbeat IPC: 1.37063 cumulative IPC: 1.37047 (Simulation time: 19 hr 27 min 7 sec) 
 Total Blocks : 262144 Invalid Blocks : 0
Heartbeat CPU 5 instructions: 370000003 cycles: 210367840 heartbeat IPC: 1.42013 cumulative IPC: 1.36605 (Simulation time: 19 hr 28 min 40 sec) 
 Total Blocks : 262144 Invalid Blocks : 0
Heartbeat CPU 1 instructions: 370000003 cycles: 210635541 heartbeat IPC: 1.33021 cumulative IPC: 1.363 (Simulation time: 19 hr 29 min 42 sec) 
 Total Blocks : 262144 Invalid Blocks : 0
Heartbeat CPU 2 instructions: 370000003 cycles: 211066927 heartbeat IPC: 1.29433 cumulative IPC: 1.35833 (Simulation time: 19 hr 31 min 32 sec) 
 Total Blocks : 262144 Invalid Blocks : 0
Heartbeat CPU 3 instructions: 380000001 cycles: 212447285 heartbeat IPC: 1.42469 cumulative IPC: 1.42256 (Simulation time: 19 hr 37 min 14 sec) 
 Total Blocks : 262144 Invalid Blocks : 0
Heartbeat CPU 4 instructions: 380000001 cycles: 214042259 heartbeat IPC: 1.42696 cumulative IPC: 1.40495 (Simulation time: 19 hr 43 min 42 sec) 
 Total Blocks : 262144 Invalid Blocks : 0
Heartbeat CPU 7 instructions: 380000001 cycles: 216549620 heartbeat IPC: 1.40153 cumulative IPC: 1.37793 (Simulation time: 19 hr 53 min 51 sec) 
 Total Blocks : 262144 Invalid Blocks : 0
Heartbeat CPU 0 instructions: 380000001 cycles: 217252430 heartbeat IPC: 1.3711 cumulative IPC: 1.37053 (Simulation time: 19 hr 56 min 56 sec) 
 Total Blocks : 262144 Invalid Blocks : 0
Heartbeat CPU 5 instructions: 380000001 cycles: 217395012 heartbeat IPC: 1.42305 cumulative IPC: 1.3691 (Simulation time: 19 hr 57 min 26 sec) 
 Total Blocks : 262144 Invalid Blocks : 0
Heartbeat CPU 6 instructions: 380000001 cycles: 217407710 heartbeat IPC: 1.34386 cumulative IPC: 1.36897 (Simulation time: 19 hr 57 min 28 sec) 
 Total Blocks : 262144 Invalid Blocks : 0
Heartbeat CPU 1 instructions: 380000001 cycles: 217917216 heartbeat IPC: 1.37331 cumulative IPC: 1.36357 (Simulation time: 19 hr 59 min 9 sec) 
 Total Blocks : 262144 Invalid Blocks : 0
Heartbeat CPU 2 instructions: 380000001 cycles: 218555261 heartbeat IPC: 1.33541 cumulative IPC: 1.35704 (Simulation time: 20 hr 1 min 34 sec) 
 Total Blocks : 262144 Invalid Blocks : 0
Heartbeat CPU 3 instructions: 390000000 cycles: 219481710 heartbeat IPC: 1.42158 cumulative IPC: 1.4225 (Simulation time: 20 hr 5 min 18 sec) 
 Total Blocks : 262144 Invalid Blocks : 0
Heartbeat CPU 4 instructions: 390000002 cycles: 221084183 heartbeat IPC: 1.42007 cumulative IPC: 1.40574 (Simulation time: 20 hr 10 min 59 sec) 
 Total Blocks : 262144 Invalid Blocks : 0
Heartbeat CPU 7 instructions: 390000000 cycles: 223903359 heartbeat IPC: 1.35985 cumulative IPC: 1.37697 (Simulation time: 20 hr 20 min 45 sec) 
 Total Blocks : 262144 Invalid Blocks : 0
Heartbeat CPU 5 instructions: 390000000 cycles: 224499968 heartbeat IPC: 1.40747 cumulative IPC: 1.37107 (Simulation time: 20 hr 22 min 49 sec) 
 Total Blocks : 262144 Invalid Blocks : 0
Heartbeat CPU 0 instructions: 390000000 cycles: 224581946 heartbeat IPC: 1.36435 cumulative IPC: 1.37021 (Simulation time: 20 hr 23 min 3 sec) 
 Total Blocks : 262144 Invalid Blocks : 0
Heartbeat CPU 6 instructions: 390000002 cycles: 224942211 heartbeat IPC: 1.32723 cumulative IPC: 1.3667 (Simulation time: 20 hr 24 min 35 sec) 
 Total Blocks : 262144 Invalid Blocks : 0
Heartbeat CPU 1 instructions: 390000000 cycles: 224976728 heartbeat IPC: 1.41653 cumulative IPC: 1.36626 (Simulation time: 20 hr 24 min 41 sec) 
 Total Blocks : 262144 Invalid Blocks : 0
Heartbeat CPU 2 instructions: 390000000 cycles: 225611637 heartbeat IPC: 1.41716 cumulative IPC: 1.36008 (Simulation time: 20 hr 26 min 33 sec) 
 Total Blocks : 262144 Invalid Blocks : 0
Heartbeat CPU 3 instructions: 400000000 cycles: 226549829 heartbeat IPC: 1.4148 cumulative IPC: 1.42212 (Simulation time: 20 hr 30 min 20 sec) 
 Total Blocks : 262144 Invalid Blocks : 0
Finished CPU 3 instructions: 200000000 cycles: 140634332 cumulative IPC: 1.42213 (Simulation time: 20 hr 30 min 21 sec) 
Heartbeat CPU 4 instructions: 400000000 cycles: 228034920 heartbeat IPC: 1.4387 cumulative IPC: 1.40735 (Simulation time: 20 hr 36 min 42 sec) 
 Total Blocks : 262144 Invalid Blocks : 0
Finished CPU 4 instructions: 200000003 cycles: 142110769 cumulative IPC: 1.40735 (Simulation time: 20 hr 36 min 42 sec) 
Heartbeat CPU 7 instructions: 400000000 cycles: 231240187 heartbeat IPC: 1.36299 cumulative IPC: 1.37626 (Simulation time: 20 hr 46 min 32 sec) 
 Total Blocks : 262144 Invalid Blocks : 0
Finished CPU 7 instructions: 200000001 cycles: 145320007 cumulative IPC: 1.37627 (Simulation time: 20 hr 46 min 33 sec) 
Heartbeat CPU 5 instructions: 400000000 cycles: 231829127 heartbeat IPC: 1.36441 cumulative IPC: 1.37073 (Simulation time: 20 hr 48 min 55 sec) 
 Total Blocks : 262144 Invalid Blocks : 0
Finished CPU 5 instructions: 200000002 cycles: 145907041 cumulative IPC: 1.37074 (Simulation time: 20 hr 48 min 55 sec) 
Heartbeat CPU 0 instructions: 400000000 cycles: 231993616 heartbeat IPC: 1.34922 cumulative IPC: 1.36914 (Simulation time: 20 hr 49 min 31 sec) 
 Total Blocks : 262144 Invalid Blocks : 0
Finished CPU 0 instructions: 200000001 cycles: 146075542 cumulative IPC: 1.36915 (Simulation time: 20 hr 49 min 33 sec) 
Heartbeat CPU 1 instructions: 400000000 cycles: 232204604 heartbeat IPC: 1.38353 cumulative IPC: 1.36711 (Simulation time: 20 hr 50 min 28 sec) 
 Total Blocks : 262144 Invalid Blocks : 0
Finished CPU 1 instructions: 200000000 cycles: 146292137 cumulative IPC: 1.36713 (Simulation time: 20 hr 50 min 30 sec) 
Heartbeat CPU 6 instructions: 400000000 cycles: 232408058 heartbeat IPC: 1.33943 cumulative IPC: 1.36531 (Simulation time: 20 hr 51 min 14 sec) 
 Total Blocks : 262144 Invalid Blocks : 0
Finished CPU 6 instructions: 200000000 cycles: 146486049 cumulative IPC: 1.36532 (Simulation time: 20 hr 51 min 15 sec) 
Heartbeat CPU 2 instructions: 400000000 cycles: 233038178 heartbeat IPC: 1.34652 cumulative IPC: 1.35939 (Simulation time: 20 hr 53 min 54 sec) 
 Total Blocks : 262144 Invalid Blocks : 0
Finished CPU 2 instructions: 200000003 cycles: 147124307 cumulative IPC: 1.35939 (Simulation time: 20 hr 53 min 56 sec) 

CPU 0 Branch Prediction Accuracy: 99.8485% MPKI: 0.00179608 Average ROB Occupancy at Mispredict: 348.434

CPU 1 Branch Prediction Accuracy: 99.8487% MPKI: 0.00179393 Average ROB Occupancy at Mispredict: 348.424

CPU 2 Branch Prediction Accuracy: 99.8486% MPKI: 0.00179487 Average ROB Occupancy at Mispredict: 348.404

CPU 3 Branch Prediction Accuracy: 99.8485% MPKI: 0.00179692 Average ROB Occupancy at Mispredict: 348.566

CPU 4 Branch Prediction Accuracy: 99.8484% MPKI: 0.00179725 Average ROB Occupancy at Mispredict: 348.53

CPU 5 Branch Prediction Accuracy: 99.8487% MPKI: 0.00179434 Average ROB Occupancy at Mispredict: 348.434

CPU 6 Branch Prediction Accuracy: 99.8485% MPKI: 0.00179699 Average ROB Occupancy at Mispredict: 348.424

CPU 7 Branch Prediction Accuracy: 99.8484% MPKI: 0.00179746 Average ROB Occupancy at Mispredict: 348.453

ChampSim completed all CPUs

Total Simulation Statistics (not including warmup)

CPU 0 cumulative IPC: 1.36986 instructions: 201539994 cycles: 147124307
ITLB TOTAL     ACCESS: 35972765  HIT: 35972765  MISS:     0  HIT %:   100  MISS %:     0  AVERAGE MISS PENALTY: 0
ITLB LOAD      ACCESS: 35972765  HIT: 35972765  MISS:     0  HIT %:   100  MISS %:     0  AVERAGE MISS PENALTY: 0
ITLB RFO       ACCESS:     0  HIT:     0  MISS:     0  HIT %:     0  MISS %:     0  AVERAGE MISS PENALTY: 0
ITLB PREFETCH  ACCESS:     0  HIT:     0  MISS:     0  HIT %:     0  MISS %:     0  AVERAGE MISS PENALTY: 0
ITLB WRITEBACK ACCESS:     0  HIT:     0  MISS:     0  HIT %:     0  MISS %:     0  AVERAGE MISS PENALTY: 0

DTLB TOTAL     ACCESS: 40033521  HIT: 24836387  MISS: 15197134  HIT %: 62.039  MISS %: 37.961  AVERAGE MISS PENALTY: 15.8839
DTLB LOAD      ACCESS: 28151386  HIT: 14431942  MISS: 13719444  HIT %: 51.2655  MISS %: 48.7345  AVERAGE MISS PENALTY: 10.2867
DTLB RFO       ACCESS: 11882135  HIT: 10404445  MISS: 1477690  HIT %: 87.5638  MISS %: 12.4362  AVERAGE MISS PENALTY: 67.8505
DTLB PREFETCH  ACCESS:     0  HIT:     0  MISS:     0  HIT %:     0  MISS %:     0  AVERAGE MISS PENALTY: 0
DTLB WRITEBACK ACCESS:     0  HIT:     0  MISS:     0  HIT %:     0  MISS %:     0  AVERAGE MISS PENALTY: 0

STLB TOTAL     ACCESS: 15197133  HIT: 15172601  MISS: 24532  HIT %: 99.8386  MISS %: 0.161425  AVERAGE MISS PENALTY: 100
STLB LOAD      ACCESS: 13719444  HIT: 13694916  MISS: 24528  HIT %: 99.8212  MISS %: 0.178783  AVERAGE MISS PENALTY: 100
STLB RFO       ACCESS: 1477689  HIT: 1477685  MISS:     4  HIT %: 99.9997  MISS %: 0.000270693  AVERAGE MISS PENALTY: 100
STLB PREFETCH  ACCESS:     0  HIT:     0  MISS:     0  HIT %:     0  MISS %:     0  AVERAGE MISS PENALTY: 0
STLB WRITEBACK ACCESS:     0  HIT:     0  MISS:     0  HIT %:     0  MISS %:     0  AVERAGE MISS PENALTY: 0

L1D TOTAL     ACCESS: 70008594  HIT: 39711539  MISS: 30297055  HIT %: 56.7238  MISS %: 43.2762  AVERAGE MISS PENALTY: 83324.6
L1D LOAD      ACCESS: 34785309  HIT: 13146072  MISS: 21639237  HIT %: 37.792  MISS %: 62.208  AVERAGE MISS PENALTY: 116570
L1D RFO       ACCESS: 22752381  HIT: 21106621  MISS: 1645760  HIT %: 92.7666  MISS %: 7.23335  AVERAGE MISS PENALTY: 960.066
L1D PREFETCH  ACCESS: 12470904  HIT: 5458846  MISS: 7012058  HIT %: 43.7727  MISS %: 56.2273  AVERAGE MISS PENALTY: 60.9492
L1D WRITEBACK ACCESS:     0  HIT:     0  MISS:     0  HIT %:     0  MISS %:     0  AVERAGE MISS PENALTY: 0

L1I TOTAL     ACCESS: 47569027  HIT: 47569027  MISS:     0  HIT %:   100  MISS %:     0  AVERAGE MISS PENALTY: 0
L1I LOAD      ACCESS: 47569027  HIT: 47569027  MISS:     0  HIT %:   100  MISS %:     0  AVERAGE MISS PENALTY: 0
L1I RFO       ACCESS:     0  HIT:     0  MISS:     0  HIT %:     0  MISS %:     0  AVERAGE MISS PENALTY: 0
L1I PREFETCH  ACCESS:     0  HIT:     0  MISS:     0  HIT %:     0  MISS %:     0  AVERAGE MISS PENALTY: 0
L1I WRITEBACK ACCESS:     0  HIT:     0  MISS:     0  HIT %:     0  MISS %:     0  AVERAGE MISS PENALTY: 0

L2C TOTAL     ACCESS: 55063319  HIT: 52622572  MISS: 2440747  HIT %: 95.5674  MISS %: 4.43262  AVERAGE MISS PENALTY: 53757.6
L2C LOAD      ACCESS: 21318551  HIT: 20973964  MISS: 344587  HIT %: 98.3836  MISS %: 1.61637  AVERAGE MISS PENALTY: 377855
L2C RFO       ACCESS: 1642772  HIT: 1591281  MISS: 51491  HIT %: 96.8656  MISS %: 3.1344  AVERAGE MISS PENALTY: 38.2484
L2C PREFETCH  ACCESS: 30237741  HIT: 28193538  MISS: 2044203  HIT %: 93.2396  MISS %: 6.76044  AVERAGE MISS PENALTY: 490.652
L2C WRITEBACK ACCESS: 1864255  HIT: 1863789  MISS:   466  HIT %: 99.975  MISS %: 0.0249966  AVERAGE MISS PENALTY: 0


LLC0 TOTAL     ACCESS: 328678  HIT: 119847  MISS: 208831  HIT %: 36.4633  MISS %: 63.5367  AVERAGE MISS PENALTY: 576.949
LLC0 LOAD      ACCESS: 67698  HIT: 36185  MISS: 31513  HIT %: 53.4506  MISS %: 46.5494  AVERAGE MISS PENALTY: 611.449
LLC0 RFO       ACCESS:  5685  HIT:  5677  MISS:     8  HIT %: 99.8593  MISS %: 0.140721  AVERAGE MISS PENALTY: 344.125
LLC0 PREFETCH  ACCESS: 226439  HIT: 52758  MISS: 173681  HIT %: 23.299  MISS %: 76.701  AVERAGE MISS PENALTY: 582.755
LLC0 WRITEBACK ACCESS: 28856  HIT: 25227  MISS:  3629  HIT %: 87.4238  MISS %: 12.5762  AVERAGE MISS PENALTY: 0

LLC1 TOTAL     ACCESS: 335641  HIT: 126730  MISS: 208911  HIT %: 37.7576  MISS %: 62.2424  AVERAGE MISS PENALTY: 565.18
LLC1 LOAD      ACCESS: 39241  HIT: 33374  MISS:  5867  HIT %: 85.0488  MISS %: 14.9512  AVERAGE MISS PENALTY: 656.2
LLC1 RFO       ACCESS:  6334  HIT:  6327  MISS:     7  HIT %: 99.8895  MISS %: 0.110515  AVERAGE MISS PENALTY: 424
LLC1 PREFETCH  ACCESS: 260613  HIT: 61119  MISS: 199494  HIT %: 23.452  MISS %: 76.548  AVERAGE MISS PENALTY: 572.546
LLC1 WRITEBACK ACCESS: 29453  HIT: 25910  MISS:  3543  HIT %: 87.9707  MISS %: 12.0293  AVERAGE MISS PENALTY: 0

LLC2 TOTAL     ACCESS: 335452  HIT: 126705  MISS: 208747  HIT %: 37.7714  MISS %: 62.2286  AVERAGE MISS PENALTY: 578.397
LLC2 LOAD      ACCESS: 38894  HIT: 33184  MISS:  5710  HIT %: 85.3191  MISS %: 14.6809  AVERAGE MISS PENALTY: 633.865
LLC2 RFO       ACCESS:  6370  HIT:  6362  MISS:     8  HIT %: 99.8744  MISS %: 0.125589  AVERAGE MISS PENALTY: 398.25
LLC2 PREFETCH  ACCESS: 260766  HIT: 61397  MISS: 199369  HIT %: 23.5449  MISS %: 76.4551  AVERAGE MISS PENALTY: 587.433
LLC2 WRITEBACK ACCESS: 29422  HIT: 25762  MISS:  3660  HIT %: 87.5603  MISS %: 12.4397  AVERAGE MISS PENALTY: 0

LLC3 TOTAL     ACCESS: 333782  HIT: 125371  MISS: 208411  HIT %: 37.5607  MISS %: 62.4393  AVERAGE MISS PENALTY: 568.808
LLC3 LOAD      ACCESS: 38993  HIT: 32915  MISS:  6078  HIT %: 84.4126  MISS %: 15.5874  AVERAGE MISS PENALTY: 642.459
LLC3 RFO       ACCESS:  6378  HIT:  6373  MISS:     5  HIT %: 99.9216  MISS %: 0.0783945  AVERAGE MISS PENALTY: 375.4
LLC3 PREFETCH  ACCESS: 259009  HIT: 60291  MISS: 198718  HIT %: 23.2776  MISS %: 76.7224  AVERAGE MISS PENALTY: 576.893
LLC3 WRITEBACK ACCESS: 29402  HIT: 25792  MISS:  3610  HIT %: 87.7219  MISS %: 12.2781  AVERAGE MISS PENALTY: 0

LLC4 TOTAL     ACCESS: 335570  HIT: 126865  MISS: 208705  HIT %: 37.8058  MISS %: 62.1942  AVERAGE MISS PENALTY: 570.3
LLC4 LOAD      ACCESS: 40109  HIT: 34056  MISS:  6053  HIT %: 84.9086  MISS %: 15.0914  AVERAGE MISS PENALTY: 668.895
LLC4 RFO       ACCESS:  6483  HIT:  6475  MISS:     8  HIT %: 99.8766  MISS %: 0.1234  AVERAGE MISS PENALTY: 548.75
LLC4 PREFETCH  ACCESS: 259500  HIT: 60497  MISS: 199003  HIT %: 23.3129  MISS %: 76.6871  AVERAGE MISS PENALTY: 577.736
LLC4 WRITEBACK ACCESS: 29478  HIT: 25837  MISS:  3641  HIT %: 87.6484  MISS %: 12.3516  AVERAGE MISS PENALTY: 0

LLC5 TOTAL     ACCESS: 335007  HIT: 126740  MISS: 208267  HIT %: 37.832  MISS %: 62.168  AVERAGE MISS PENALTY: 577.909
LLC5 LOAD      ACCESS: 39858  HIT: 33573  MISS:  6285  HIT %: 84.2315  MISS %: 15.7685  AVERAGE MISS PENALTY: 685.256
LLC5 RFO       ACCESS:  6444  HIT:  6439  MISS:     5  HIT %: 99.9224  MISS %: 0.0775916  AVERAGE MISS PENALTY: 637.6
LLC5 PREFETCH  ACCESS: 259260  HIT: 60848  MISS: 198412  HIT %: 23.4699  MISS %: 76.5301  AVERAGE MISS PENALTY: 584.891
LLC5 WRITEBACK ACCESS: 29445  HIT: 25880  MISS:  3565  HIT %: 87.8927  MISS %: 12.1073  AVERAGE MISS PENALTY: 0

LLC6 TOTAL     ACCESS: 335145  HIT: 126916  MISS: 208229  HIT %: 37.869  MISS %: 62.131  AVERAGE MISS PENALTY: 572.255
LLC6 LOAD      ACCESS: 39686  HIT: 33448  MISS:  6238  HIT %: 84.2816  MISS %: 15.7184  AVERAGE MISS PENALTY: 640.716
LLC6 RFO       ACCESS:  6523  HIT:  6514  MISS:     9  HIT %: 99.862  MISS %: 0.137973  AVERAGE MISS PENALTY: 703.556
LLC6 PREFETCH  ACCESS: 259339  HIT: 60938  MISS: 198401  HIT %: 23.4974  MISS %: 76.5026  AVERAGE MISS PENALTY: 580.425
LLC6 WRITEBACK ACCESS: 29597  HIT: 26016  MISS:  3581  HIT %: 87.9008  MISS %: 12.0992  AVERAGE MISS PENALTY: 0

LLC7 TOTAL     ACCESS: 335747  HIT: 127252  MISS: 208495  HIT %: 37.9012  MISS %: 62.0988  AVERAGE MISS PENALTY: 573.911
LLC7 LOAD      ACCESS: 39797  HIT: 33797  MISS:  6000  HIT %: 84.9235  MISS %: 15.0765  AVERAGE MISS PENALTY: 656.617
LLC7 RFO       ACCESS:  6554  HIT:  6547  MISS:     7  HIT %: 99.8932  MISS %: 0.106805  AVERAGE MISS PENALTY: 411.857
LLC7 PREFETCH  ACCESS: 259571  HIT: 60736  MISS: 198835  HIT %: 23.3986  MISS %: 76.6014  AVERAGE MISS PENALTY: 581.965
LLC7 WRITEBACK ACCESS: 29825  HIT: 26172  MISS:  3653  HIT %: 87.7519  MISS %: 12.2481  AVERAGE MISS PENALTY: 0

Total Rob stall cycles : 	103032605
Total Load Rob Stall cycles : 	43575805
Average Rob Stall cycles : 	 5
Average Load Rob Stall cycles : 	 22

CPU 1 cumulative IPC: 1.36766 instructions: 201215628 cycles: 147124307
ITLB TOTAL     ACCESS: 35926190  HIT: 35926190  MISS:     0  HIT %:   100  MISS %:     0  AVERAGE MISS PENALTY: 0
ITLB LOAD      ACCESS: 35926190  HIT: 35926190  MISS:     0  HIT %:   100  MISS %:     0  AVERAGE MISS PENALTY: 0
ITLB RFO       ACCESS:     0  HIT:     0  MISS:     0  HIT %:     0  MISS %:     0  AVERAGE MISS PENALTY: 0
ITLB PREFETCH  ACCESS:     0  HIT:     0  MISS:     0  HIT %:     0  MISS %:     0  AVERAGE MISS PENALTY: 0
ITLB WRITEBACK ACCESS:     0  HIT:     0  MISS:     0  HIT %:     0  MISS %:     0  AVERAGE MISS PENALTY: 0

DTLB TOTAL     ACCESS: 39966004  HIT: 24793523  MISS: 15172481  HIT %: 62.0365  MISS %: 37.9635  AVERAGE MISS PENALTY: 10.2293
DTLB LOAD      ACCESS: 28109566  HIT: 14412536  MISS: 13697030  HIT %: 51.2727  MISS %: 48.7273  AVERAGE MISS PENALTY: 10.286
DTLB RFO       ACCESS: 11856438  HIT: 10380987  MISS: 1475451  HIT %: 87.5557  MISS %: 12.4443  AVERAGE MISS PENALTY: 9.70324
DTLB PREFETCH  ACCESS:     0  HIT:     0  MISS:     0  HIT %:     0  MISS %:     0  AVERAGE MISS PENALTY: 0
DTLB WRITEBACK ACCESS:     0  HIT:     0  MISS:     0  HIT %:     0  MISS %:     0  AVERAGE MISS PENALTY: 0

STLB TOTAL     ACCESS: 15172481  HIT: 15147999  MISS: 24482  HIT %: 99.8386  MISS %: 0.161358  AVERAGE MISS PENALTY: 100
STLB LOAD      ACCESS: 13697030  HIT: 13672552  MISS: 24478  HIT %: 99.8213  MISS %: 0.17871  AVERAGE MISS PENALTY: 100
STLB RFO       ACCESS: 1475451  HIT: 1475447  MISS:     4  HIT %: 99.9997  MISS %: 0.000271104  AVERAGE MISS PENALTY: 100
STLB PREFETCH  ACCESS:     0  HIT:     0  MISS:     0  HIT %:     0  MISS %:     0  AVERAGE MISS PENALTY: 0
STLB WRITEBACK ACCESS:     0  HIT:     0  MISS:     0  HIT %:     0  MISS %:     0  AVERAGE MISS PENALTY: 0

L1D TOTAL     ACCESS: 69844383  HIT: 39552021  MISS: 30292362  HIT %: 56.6288  MISS %: 43.3712  AVERAGE MISS PENALTY: 88944.6
L1D LOAD      ACCESS: 34739074  HIT: 13130311  MISS: 21608763  HIT %: 37.797  MISS %: 62.203  AVERAGE MISS PENALTY: 124592
L1D RFO       ACCESS: 22716398  HIT: 21074064  MISS: 1642334  HIT %: 92.7703  MISS %: 7.22973  AVERAGE MISS PENALTY: 994.13
L1D PREFETCH  ACCESS: 12388911  HIT: 5347646  MISS: 7041265  HIT %: 43.1648  MISS %: 56.8352  AVERAGE MISS PENALTY: 61.2918
L1D WRITEBACK ACCESS:     0  HIT:     0  MISS:     0  HIT %:     0  MISS %:     0  AVERAGE MISS PENALTY: 0

L1I TOTAL     ACCESS: 47486490  HIT: 47486490  MISS:     0  HIT %:   100  MISS %:     0  AVERAGE MISS PENALTY: 0
L1I LOAD      ACCESS: 47486490  HIT: 47486490  MISS:     0  HIT %:   100  MISS %:     0  AVERAGE MISS PENALTY: 0
L1I RFO       ACCESS:     0  HIT:     0  MISS:     0  HIT %:     0  MISS %:     0  AVERAGE MISS PENALTY: 0
L1I PREFETCH  ACCESS:     0  HIT:     0  MISS:     0  HIT %:     0  MISS %:     0  AVERAGE MISS PENALTY: 0
L1I WRITEBACK ACCESS:     0  HIT:     0  MISS:     0  HIT %:     0  MISS %:     0  AVERAGE MISS PENALTY: 0

L2C TOTAL     ACCESS: 54896330  HIT: 52456824  MISS: 2439506  HIT %: 95.5562  MISS %: 4.44384  AVERAGE MISS PENALTY: 49526.1
L2C LOAD      ACCESS: 21286121  HIT: 20943914  MISS: 342207  HIT %: 98.3923  MISS %: 1.60765  AVERAGE MISS PENALTY: 350124
L2C RFO       ACCESS: 1639386  HIT: 1594761  MISS: 44625  HIT %: 97.2779  MISS %: 2.72206  AVERAGE MISS PENALTY: 38.4342
L2C PREFETCH  ACCESS: 30110437  HIT: 28058120  MISS: 2052317  HIT %: 93.184  MISS %: 6.81597  AVERAGE MISS PENALTY: 488.635
L2C WRITEBACK ACCESS: 1860386  HIT: 1860029  MISS:   357  HIT %: 99.9808  MISS %: 0.0191896  AVERAGE MISS PENALTY: 0


LLC0 TOTAL     ACCESS: 328728  HIT: 119947  MISS: 208781  HIT %: 36.4882  MISS %: 63.5118  AVERAGE MISS PENALTY: 578.291
LLC0 LOAD      ACCESS: 67959  HIT: 36569  MISS: 31390  HIT %: 53.8104  MISS %: 46.1896  AVERAGE MISS PENALTY: 624.135
LLC0 RFO       ACCESS:  5045  HIT:  5041  MISS:     4  HIT %: 99.9207  MISS %: 0.0792864  AVERAGE MISS PENALTY: 228.5
LLC0 PREFETCH  ACCESS: 227488  HIT: 53700  MISS: 173788  HIT %: 23.6056  MISS %: 76.3944  AVERAGE MISS PENALTY: 581.995
LLC0 WRITEBACK ACCESS: 28236  HIT: 24637  MISS:  3599  HIT %: 87.2539  MISS %: 12.7461  AVERAGE MISS PENALTY: 0

LLC1 TOTAL     ACCESS: 336438  HIT: 127604  MISS: 208834  HIT %: 37.9279  MISS %: 62.0721  AVERAGE MISS PENALTY: 566.751
LLC1 LOAD      ACCESS: 39628  HIT: 33866  MISS:  5762  HIT %: 85.4598  MISS %: 14.5402  AVERAGE MISS PENALTY: 662.479
LLC1 RFO       ACCESS:  5636  HIT:  5632  MISS:     4  HIT %: 99.929  MISS %: 0.0709723  AVERAGE MISS PENALTY: 493.5
LLC1 PREFETCH  ACCESS: 262307  HIT: 62801  MISS: 199506  HIT %: 23.9418  MISS %: 76.0582  AVERAGE MISS PENALTY: 574.107
LLC1 WRITEBACK ACCESS: 28867  HIT: 25305  MISS:  3562  HIT %: 87.6607  MISS %: 12.3393  AVERAGE MISS PENALTY: 0

LLC2 TOTAL     ACCESS: 335137  HIT: 126520  MISS: 208617  HIT %: 37.7517  MISS %: 62.2483  AVERAGE MISS PENALTY: 580.656
LLC2 LOAD      ACCESS: 38841  HIT: 33156  MISS:  5685  HIT %: 85.3634  MISS %: 14.6366  AVERAGE MISS PENALTY: 661.838
LLC2 RFO       ACCESS:  5557  HIT:  5549  MISS:     8  HIT %: 99.856  MISS %: 0.143963  AVERAGE MISS PENALTY: 557
LLC2 PREFETCH  ACCESS: 262050  HIT: 62785  MISS: 199265  HIT %: 23.9592  MISS %: 76.0408  AVERAGE MISS PENALTY: 589.003
LLC2 WRITEBACK ACCESS: 28689  HIT: 25030  MISS:  3659  HIT %: 87.246  MISS %: 12.754  AVERAGE MISS PENALTY: 0

LLC3 TOTAL     ACCESS: 332793  HIT: 124151  MISS: 208642  HIT %: 37.3058  MISS %: 62.6942  AVERAGE MISS PENALTY: 568.537
LLC3 LOAD      ACCESS: 38611  HIT: 32555  MISS:  6056  HIT %: 84.3154  MISS %: 15.6846  AVERAGE MISS PENALTY: 667.7
LLC3 RFO       ACCESS:  5469  HIT:  5461  MISS:     8  HIT %: 99.8537  MISS %: 0.146279  AVERAGE MISS PENALTY: 227.625
LLC3 PREFETCH  ACCESS: 260113  HIT: 61234  MISS: 198879  HIT %: 23.5413  MISS %: 76.4587  AVERAGE MISS PENALTY: 576.106
LLC3 WRITEBACK ACCESS: 28600  HIT: 24901  MISS:  3699  HIT %: 87.0664  MISS %: 12.9336  AVERAGE MISS PENALTY: 0

LLC4 TOTAL     ACCESS: 333705  HIT: 125335  MISS: 208370  HIT %: 37.5586  MISS %: 62.4414  AVERAGE MISS PENALTY: 571.684
[...]
 TIMELY PREFETCHES:      53631 LATE PREFETCHES: 0 DROPPED PREFETCHES: 0
LLC1 AVERAGE MISS LATENCY: 568.45 cycles
LLC2 TOTAL     ACCESS: 334273  HIT: 127229  MISS: 207044  HIT %: 38.0614  MISS %: 61.9386  AVERAGE MISS PENALTY: 579.29
LLC2 LOAD      ACCESS: 40123  HIT: 34456  MISS:  5667  HIT %: 85.8759  MISS %: 14.1241  AVERAGE MISS PENALTY: 656.07
LLC2 RFO       ACCESS:  6004  HIT:  5991  MISS:    13  HIT %: 99.7835  MISS %: 0.216522  AVERAGE MISS PENALTY: 379.385
LLC2 PREFETCH  ACCESS: 259286  HIT: 61647  MISS: 197639  HIT %: 23.7757  MISS %: 76.2243  AVERAGE MISS PENALTY: 588.019
LLC2 WRITEBACK ACCESS: 28860  HIT: 25135  MISS:  3725  HIT %: 87.0929  MISS %: 12.9071  AVERAGE MISS PENALTY: 0
LLC2 PREFETCH  REQUESTED:     0  ISSUED:     0  USEFUL: 53029  USELESS: 1553328
 USEFUL LOAD PREFETCHES:      53029 PREFETCH ISSUED TO LOWER LEVEL:   18424206  ACCURACY: 0.287822
 TIMELY PREFETCHES:      53029 LATE PREFETCHES: 0 DROPPED PREFETCHES: 0
LLC2 AVERAGE MISS LATENCY: 579.29 cycles
LLC3 TOTAL     ACCESS: 331772  HIT: 125068  MISS: 206704  HIT %: 37.697  MISS %: 62.303  AVERAGE MISS PENALTY: 570.232
LLC3 LOAD      ACCESS: 39699  HIT: 33647  MISS:  6052  HIT %: 84.7553  MISS %: 15.2447  AVERAGE MISS PENALTY: 659.101
LLC3 RFO       ACCESS:  5953  HIT:  5943  MISS:    10  HIT %: 99.832  MISS %: 0.167983  AVERAGE MISS PENALTY: 265.3
LLC3 PREFETCH  ACCESS: 257293  HIT: 60213  MISS: 197080  HIT %: 23.4025  MISS %: 76.5975  AVERAGE MISS PENALTY: 577.825
LLC3 WRITEBACK ACCESS: 28827  HIT: 25265  MISS:  3562  HIT %: 87.6435  MISS %: 12.3565  AVERAGE MISS PENALTY: 0
LLC3 PREFETCH  REQUESTED:     0  ISSUED:     0  USEFUL: 52674  USELESS: 1549002
 USEFUL LOAD PREFETCHES:      52674 PREFETCH ISSUED TO LOWER LEVEL:   20738033  ACCURACY: 0.253997
 TIMELY PREFETCHES:      52674 LATE PREFETCHES: 0 DROPPED PREFETCHES: 0
LLC3 AVERAGE MISS LATENCY: 570.232 cycles
LLC4 TOTAL     ACCESS: 334913  HIT: 128307  MISS: 206606  HIT %: 38.3105  MISS %: 61.6895  AVERAGE MISS PENALTY: 568.586
LLC4 LOAD      ACCESS: 41647  HIT: 35668  MISS:  5979  HIT %: 85.6436  MISS %: 14.3564  AVERAGE MISS PENALTY: 679.966
LLC4 RFO       ACCESS:  6106  HIT:  6099  MISS:     7  HIT %: 99.8854  MISS %: 0.114641  AVERAGE MISS PENALTY: 456.571
LLC4 PREFETCH  ACCESS: 258245  HIT: 61178  MISS: 197067  HIT %: 23.6899  MISS %: 76.3101  AVERAGE MISS PENALTY: 575.462
LLC4 WRITEBACK ACCESS: 28915  HIT: 25362  MISS:  3553  HIT %: 87.7123  MISS %: 12.2877  AVERAGE MISS PENALTY: 0
LLC4 PREFETCH  REQUESTED:     0  ISSUED:     0  USEFUL: 53239  USELESS: 1549198
 USEFUL LOAD PREFETCHES:      53239 PREFETCH ISSUED TO LOWER LEVEL:   23415588  ACCURACY: 0.227366
 TIMELY PREFETCHES:      53239 LATE PREFETCHES: 0 DROPPED PREFETCHES: 0
LLC4 AVERAGE MISS LATENCY: 568.586 cycles
LLC5 TOTAL     ACCESS: 333362  HIT: 126745  MISS: 206617  HIT %: 38.0202  MISS %: 61.9798  AVERAGE MISS PENALTY: 574.693
LLC5 LOAD      ACCESS: 40650  HIT: 34491  MISS:  6159  HIT %: 84.8487  MISS %: 15.1513  AVERAGE MISS PENALTY: 676.915
LLC5 RFO       ACCESS:  6016  HIT:  6010  MISS:     6  HIT %: 99.9003  MISS %: 0.099734  AVERAGE MISS PENALTY: 416.833
LLC5 PREFETCH  ACCESS: 257864  HIT: 60993  MISS: 196871  HIT %: 23.6532  MISS %: 76.3468  AVERAGE MISS PENALTY: 581.954
LLC5 WRITEBACK ACCESS: 28832  HIT: 25251  MISS:  3581  HIT %: 87.5798  MISS %: 12.4202  AVERAGE MISS PENALTY: 0
LLC5 PREFETCH  REQUESTED:     0  ISSUED:     0  USEFUL: 53107  USELESS: 1546896
 USEFUL LOAD PREFETCHES:      53107 PREFETCH ISSUED TO LOWER LEVEL:   26803339  ACCURACY: 0.198136
 TIMELY PREFETCHES:      53107 LATE PREFETCHES: 0 DROPPED PREFETCHES: 0
LLC5 AVERAGE MISS LATENCY: 574.693 cycles
LLC6 TOTAL     ACCESS: 333394  HIT: 126863  MISS: 206531  HIT %: 38.052  MISS %: 61.948  AVERAGE MISS PENALTY: 574.502
LLC6 LOAD      ACCESS: 40549  HIT: 34396  MISS:  6153  HIT %: 84.8258  MISS %: 15.1742  AVERAGE MISS PENALTY: 651.161
LLC6 RFO       ACCESS:  6028  HIT:  6017  MISS:    11  HIT %: 99.8175  MISS %: 0.182482  AVERAGE MISS PENALTY: 774.636
LLC6 PREFETCH  ACCESS: 257822  HIT: 61060  MISS: 196762  HIT %: 23.683  MISS %: 76.317  AVERAGE MISS PENALTY: 582.62
LLC6 WRITEBACK ACCESS: 28995  HIT: 25390  MISS:  3605  HIT %: 87.5668  MISS %: 12.4332  AVERAGE MISS PENALTY: 0
LLC6 PREFETCH  REQUESTED:     0  ISSUED:     0  USEFUL: 53120  USELESS: 1546747
 USEFUL LOAD PREFETCHES:      53120 PREFETCH ISSUED TO LOWER LEVEL:   30941272  ACCURACY: 0.17168
 TIMELY PREFETCHES:      53120 LATE PREFETCHES: 0 DROPPED PREFETCHES: 0
LLC6 AVERAGE MISS LATENCY: 574.502 cycles
LLC7 TOTAL     ACCESS: 334615  HIT: 127743  MISS: 206872  HIT %: 38.1761  MISS %: 61.8239  AVERAGE MISS PENALTY: 573.576
LLC7 LOAD      ACCESS: 40959  HIT: 35002  MISS:  5957  HIT %: 85.4562  MISS %: 14.5438  AVERAGE MISS PENALTY: 641.847
LLC7 RFO       ACCESS:  6102  HIT:  6093  MISS:     9  HIT %: 99.8525  MISS %: 0.147493  AVERAGE MISS PENALTY: 564.333
LLC7 PREFETCH  ACCESS: 258301  HIT: 61089  MISS: 197212  HIT %: 23.6503  MISS %: 76.3497  AVERAGE MISS PENALTY: 582.257
LLC7 WRITEBACK ACCESS: 29253  HIT: 25559  MISS:  3694  HIT %: 87.3722  MISS %: 12.6278  AVERAGE MISS PENALTY: 0
LLC7 PREFETCH  REQUESTED:     0  ISSUED:     0  USEFUL: 53476  USELESS: 1549303
 USEFUL LOAD PREFETCHES:      53476 PREFETCH ISSUED TO LOWER LEVEL:   35975289  ACCURACY: 0.148646
 TIMELY PREFETCHES:      53476 LATE PREFETCHES: 0 DROPPED PREFETCHES: 0
LLC7 AVERAGE MISS LATENCY: 573.576 cycles
ROI Average ROB Stall Cycles:	5.61558
ROI Total ROB Stalls Cycles:	102724708
ROI TOTAL ROB counter      :	18292819
ROI Average Load ROB Stall Cycles:	22.6102
ROI Total Load ROB Stalls Cycle  :	43812294
ROI Total Load ROB stalls Counter:	1937724
Major fault: 0 Minor fault: 21726

CPU 7 cumulative IPC: 1.37627 instructions: 200000001 cycles: 145320007
ITLB TOTAL     ACCESS: 35702523  HIT: 35702523  MISS:     0  HIT %:   100  MISS %:     0  AVERAGE MISS PENALTY: 0
ITLB LOAD      ACCESS: 35702523  HIT: 35702523  MISS:     0  HIT %:   100  MISS %:     0  AVERAGE MISS PENALTY: 0
ITLB RFO       ACCESS:     0  HIT:     0  MISS:     0  HIT %:     0  MISS %:     0  AVERAGE MISS PENALTY: 0
ITLB PREFETCH  ACCESS:     0  HIT:     0  MISS:     0  HIT %:     0  MISS %:     0  AVERAGE MISS PENALTY: 0
ITLB WRITEBACK ACCESS:     0  HIT:     0  MISS:     0  HIT %:     0  MISS %:     0  AVERAGE MISS PENALTY: 0
ITLB PREFETCH  REQUESTED:     0  ISSUED:     0  USEFUL:     0  USELESS:     0
 USEFUL LOAD PREFETCHES:          0 PREFETCH ISSUED TO LOWER LEVEL:          0  ACCURACY: -nan
 TIMELY PREFETCHES:          0 LATE PREFETCHES: 0 DROPPED PREFETCHES: 0
ITLB AVERAGE MISS LATENCY: -nan cycles
DTLB TOTAL     ACCESS: 39732624  HIT: 24651691  MISS: 15080933  HIT %: 62.044  MISS %: 37.956  AVERAGE MISS PENALTY: 10.2304
DTLB LOAD      ACCESS: 27917286  HIT: 14302220  MISS: 13615066  HIT %: 51.2307  MISS %: 48.7693  AVERAGE MISS PENALTY: 10.2872
DTLB RFO       ACCESS: 11815338  HIT: 10349471  MISS: 1465867  HIT %: 87.5935  MISS %: 12.4065  AVERAGE MISS PENALTY: 9.70294
DTLB PREFETCH  ACCESS:     0  HIT:     0  MISS:     0  HIT %:     0  MISS %:     0  AVERAGE MISS PENALTY: 0
DTLB WRITEBACK ACCESS:     0  HIT:     0  MISS:     0  HIT %:     0  MISS %:     0  AVERAGE MISS PENALTY: 0
DTLB PREFETCH  REQUESTED:     0  ISSUED:     0  USEFUL:     0  USELESS:     0
 USEFUL LOAD PREFETCHES:          0 PREFETCH ISSUED TO LOWER LEVEL:          0  ACCURACY: -nan
 TIMELY PREFETCHES:          0 LATE PREFETCHES: 0 DROPPED PREFETCHES: 0
DTLB AVERAGE MISS LATENCY: 10.2304 cycles
STLB TOTAL     ACCESS: 15080934  HIT: 15056577  MISS: 24357  HIT %: 99.8385  MISS %: 0.161509  AVERAGE MISS PENALTY: 100
STLB LOAD      ACCESS: 13615067  HIT: 13590714  MISS: 24353  HIT %: 99.8211  MISS %: 0.178868  AVERAGE MISS PENALTY: 100
STLB RFO       ACCESS: 1465867  HIT: 1465863  MISS:     4  HIT %: 99.9997  MISS %: 0.000272876  AVERAGE MISS PENALTY: 100
STLB PREFETCH  ACCESS:     0  HIT:     0  MISS:     0  HIT %:     0  MISS %:     0  AVERAGE MISS PENALTY: 0
STLB WRITEBACK ACCESS:     0  HIT:     0  MISS:     0  HIT %:     0  MISS %:     0  AVERAGE MISS PENALTY: 0
STLB PREFETCH  REQUESTED:     0  ISSUED:     0  USEFUL:     0  USELESS:     0
 USEFUL LOAD PREFETCHES:          0 PREFETCH ISSUED TO LOWER LEVEL:          0  ACCURACY: -nan
 TIMELY PREFETCHES:          0 LATE PREFETCHES: 0 DROPPED PREFETCHES: 0
STLB AVERAGE MISS LATENCY: 100 cycles
L1D TOTAL     ACCESS: 69451067  HIT: 39414720  MISS: 30036347  HIT %: 56.7518  MISS %: 43.2482  AVERAGE MISS PENALTY: 84224.7
L1D LOAD      ACCESS: 34518825  HIT: 13042964  MISS: 21475861  HIT %: 37.7851  MISS %: 62.2149  AVERAGE MISS PENALTY: 117714
L1D RFO       ACCESS: 22581013  HIT: 20949170  MISS: 1631843  HIT %: 92.7734  MISS %: 7.22662  AVERAGE MISS PENALTY: 843.926
L1D PREFETCH  ACCESS: 12351229  HIT: 5422586  MISS: 6928643  HIT %: 43.9032  MISS %: 56.0968  AVERAGE MISS PENALTY: 60.5865
L1D WRITEBACK ACCESS:     0  HIT:     0  MISS:     0  HIT %:     0  MISS %:     0  AVERAGE MISS PENALTY: 0
L1D PREFETCH  REQUESTED: 15151946  ISSUED: 13156980  USEFUL: 128046  USELESS: 6800575
 USEFUL LOAD PREFETCHES:     128046 PREFETCH ISSUED TO LOWER LEVEL:   30143632  ACCURACY: 0.424786
 TIMELY PREFETCHES:     128046 LATE PREFETCHES: 548111 DROPPED PREFETCHES: 1994966
L1D AVERAGE MISS LATENCY: 73.2012 cycles
L1I TOTAL     ACCESS: 47213421  HIT: 47213421  MISS:     0  HIT %:   100  MISS %:     0  AVERAGE MISS PENALTY: 0
L1I LOAD      ACCESS: 47213421  HIT: 47213421  MISS:     0  HIT %:   100  MISS %:     0  AVERAGE MISS PENALTY: 0
L1I RFO       ACCESS:     0  HIT:     0  MISS:     0  HIT %:     0  MISS %:     0  AVERAGE MISS PENALTY: 0
L1I PREFETCH  ACCESS:     0  HIT:     0  MISS:     0  HIT %:     0  MISS %:     0  AVERAGE MISS PENALTY: 0
L1I WRITEBACK ACCESS:     0  HIT:     0  MISS:     0  HIT %:     0  MISS %:     0  AVERAGE MISS PENALTY: 0
L1I PREFETCH  REQUESTED:     0  ISSUED:     0  USEFUL:     0  USELESS:     0
 USEFUL LOAD PREFETCHES:          0 PREFETCH ISSUED TO LOWER LEVEL:          0  ACCURACY: -nan
 TIMELY PREFETCHES:          0 LATE PREFETCHES: 0 DROPPED PREFETCHES: 0
L1I AVERAGE MISS LATENCY: -nan cycles
L2C TOTAL     ACCESS: 54600903  HIT: 52276999  MISS: 2323904  HIT %: 95.7438  MISS %: 4.25616  AVERAGE MISS PENALTY: 52127.4
L2C LOAD      ACCESS: 21157244  HIT: 20868961  MISS: 288283  HIT %: 98.6374  MISS %: 1.36257  AVERAGE MISS PENALTY: 416772
L2C RFO       ACCESS: 1628691  HIT: 1582834  MISS: 45857  HIT %: 97.1844  MISS %: 2.81557  AVERAGE MISS PENALTY: 38.6289
L2C PREFETCH  ACCESS: 29965939  HIT: 27976570  MISS: 1989369  HIT %: 93.3612  MISS %: 6.63877  AVERAGE MISS PENALTY: 497.218
L2C WRITEBACK ACCESS: 1849029  HIT: 1848634  MISS:   395  HIT %: 99.9786  MISS %: 0.0213626  AVERAGE MISS PENALTY: 0
L2C PREFETCH  REQUESTED: 34118810  ISSUED: 28760273  USEFUL: 1840599  USELESS: 148600
 USEFUL LOAD PREFETCHES:    1840599 PREFETCH ISSUED TO LOWER LEVEL:    5793922  ACCURACY: 31.7678
 TIMELY PREFETCHES:    1840599 LATE PREFETCHES: 42848 DROPPED PREFETCHES: 5358537
L2C AVERAGE MISS LATENCY: 451.504 cycles
LLC0 TOTAL     ACCESS: 315613  HIT: 108364  MISS: 207249  HIT %: 34.3345  MISS %: 65.6655  AVERAGE MISS PENALTY: 575.478
LLC0 LOAD      ACCESS: 61307  HIT: 30083  MISS: 31224  HIT %: 49.0694  MISS %: 50.9306  AVERAGE MISS PENALTY: 615.084
LLC0 RFO       ACCESS:  5102  HIT:  5094  MISS:     8  HIT %: 99.8432  MISS %: 0.156801  AVERAGE MISS PENALTY: 690.5
LLC0 PREFETCH  ACCESS: 221060  HIT: 48658  MISS: 172402  HIT %: 22.0112  MISS %: 77.9888  AVERAGE MISS PENALTY: 580.367
LLC0 WRITEBACK ACCESS: 28144  HIT: 24529  MISS:  3615  HIT %: 87.1553  MISS %: 12.8447  AVERAGE MISS PENALTY: 0
LLC0 PREFETCH  REQUESTED:     0  ISSUED:     0  USEFUL: 46463  USELESS: 1353918
 USEFUL LOAD PREFETCHES:      46463 PREFETCH ISSUED TO LOWER LEVEL:   14089368  ACCURACY: 0.329773
 TIMELY PREFETCHES:      46463 LATE PREFETCHES: 0 DROPPED PREFETCHES: 0
LLC0 AVERAGE MISS LATENCY: 575.478 cycles
Deadblocks : 241518 Deadblock percentage : 773.501

LLC1 TOTAL     ACCESS: 321069  HIT: 114023  MISS: 207046  HIT %: 35.5136  MISS %: 64.4864  AVERAGE MISS PENALTY: 561.992
LLC1 LOAD      ACCESS: 32417  HIT: 26686  MISS:  5731  HIT %: 82.321  MISS %: 17.679  AVERAGE MISS PENALTY: 656.681
LLC1 RFO       ACCESS:  5756  HIT:  5751  MISS:     5  HIT %: 99.9131  MISS %: 0.0868659  AVERAGE MISS PENALTY: 766.2
LLC1 PREFETCH  ACCESS: 254249  HIT: 56447  MISS: 197802  HIT %: 22.2015  MISS %: 77.7985  AVERAGE MISS PENALTY: 569.21
LLC1 WRITEBACK ACCESS: 28647  HIT: 25139  MISS:  3508  HIT %: 87.7544  MISS %: 12.2456  AVERAGE MISS PENALTY: 0
LLC1 PREFETCH  REQUESTED:     0  ISSUED:     0  USEFUL: 53631  USELESS: 1553444
 USEFUL LOAD PREFETCHES:      53631 PREFETCH ISSUED TO LOWER LEVEL:   16586967  ACCURACY: 0.323332
 TIMELY PREFETCHES:      53631 LATE PREFETCHES: 0 DROPPED PREFETCHES: 0
LLC1 AVERAGE MISS LATENCY: 561.992 cycles
LLC2 TOTAL     ACCESS: 320321  HIT: 113217  MISS: 207104  HIT %: 35.3449  MISS %: 64.6551  AVERAGE MISS PENALTY: 576.574
LLC2 LOAD      ACCESS: 31984  HIT: 26301  MISS:  5683  HIT %: 82.2317  MISS %: 17.7683  AVERAGE MISS PENALTY: 633.56
LLC2 RFO       ACCESS:  5708  HIT:  5703  MISS:     5  HIT %: 99.9124  MISS %: 0.0875964  AVERAGE MISS PENALTY: 819
LLC2 PREFETCH  ACCESS: 254046  HIT: 56203  MISS: 197843  HIT %: 22.1232  MISS %: 77.8768  AVERAGE MISS PENALTY: 585.343
LLC2 WRITEBACK ACCESS: 28583  HIT: 25010  MISS:  3573  HIT %: 87.4996  MISS %: 12.5004  AVERAGE MISS PENALTY: 0
LLC2 PREFETCH  REQUESTED:     0  ISSUED:     0  USEFUL: 53029  USELESS: 1553328
 USEFUL LOAD PREFETCHES:      53029 PREFETCH ISSUED TO LOWER LEVEL:   18424206  ACCURACY: 0.287822
 TIMELY PREFETCHES:      53029 LATE PREFETCHES: 0 DROPPED PREFETCHES: 0
LLC2 AVERAGE MISS LATENCY: 576.574 cycles
LLC3 TOTAL     ACCESS: 318673  HIT: 111897  MISS: 206776  HIT %: 35.1134  MISS %: 64.8866  AVERAGE MISS PENALTY: 566.682
LLC3 LOAD      ACCESS: 32151  HIT: 26090  MISS:  6061  HIT %: 81.1483  MISS %: 18.8517  AVERAGE MISS PENALTY: 663.651
LLC3 RFO       ACCESS:  5825  HIT:  5817  MISS:     8  HIT %: 99.8627  MISS %: 0.137339  AVERAGE MISS PENALTY: 645.375
LLC3 PREFETCH  ACCESS: 252048  HIT: 54896  MISS: 197152  HIT %: 21.78  MISS %: 78.22  AVERAGE MISS PENALTY: 573.916
LLC3 WRITEBACK ACCESS: 28649  HIT: 25094  MISS:  3555  HIT %: 87.5912  MISS %: 12.4088  AVERAGE MISS PENALTY: 0
LLC3 PREFETCH  REQUESTED:     0  ISSUED:     0  USEFUL: 52674  USELESS: 1549002
 USEFUL LOAD PREFETCHES:      52674 PREFETCH ISSUED TO LOWER LEVEL:   20738033  ACCURACY: 0.253997
 TIMELY PREFETCHES:      52674 LATE PREFETCHES: 0 DROPPED PREFETCHES: 0
LLC3 AVERAGE MISS LATENCY: 566.682 cycles
LLC4 TOTAL     ACCESS: 318824  HIT: 112182  MISS: 206642  HIT %: 35.1862  MISS %: 64.8138  AVERAGE MISS PENALTY: 569.002
LLC4 LOAD      ACCESS: 32550  HIT: 26563  MISS:  5987  HIT %: 81.6068  MISS %: 18.3932  AVERAGE MISS PENALTY: 673.323
LLC4 RFO       ACCESS:  5750  HIT:  5743  MISS:     7  HIT %: 99.8783  MISS %: 0.121739  AVERAGE MISS PENALTY: 247.143
LLC4 PREFETCH  ACCESS: 251951  HIT: 54815  MISS: 197136  HIT %: 21.7562  MISS %: 78.2438  AVERAGE MISS PENALTY: 575.982
LLC4 WRITEBACK ACCESS: 28573  HIT: 25061  MISS:  3512  HIT %: 87.7087  MISS %: 12.2913  AVERAGE MISS PENALTY: 0
LLC4 PREFETCH  REQUESTED:     0  ISSUED:     0  USEFUL: 53239  USELESS: 1549198
 USEFUL LOAD PREFETCHES:      53239 PREFETCH ISSUED TO LOWER LEVEL:   23415588  ACCURACY: 0.227366
 TIMELY PREFETCHES:      53239 LATE PREFETCHES: 0 DROPPED PREFETCHES: 0
LLC4 AVERAGE MISS LATENCY: 569.002 cycles
LLC5 TOTAL     ACCESS: 318649  HIT: 111855  MISS: 206794  HIT %: 35.1029  MISS %: 64.8971  AVERAGE MISS PENALTY: 572.656
LLC5 LOAD      ACCESS: 32548  HIT: 26408  MISS:  6140  HIT %: 81.1356  MISS %: 18.8644  AVERAGE MISS PENALTY: 655.987
LLC5 RFO       ACCESS:  5710  HIT:  5700  MISS:    10  HIT %: 99.8249  MISS %: 0.175131  AVERAGE MISS PENALTY: 592.3
LLC5 PREFETCH  ACCESS: 251832  HIT: 54683  MISS: 197149  HIT %: 21.7141  MISS %: 78.2859  AVERAGE MISS PENALTY: 580.211
LLC5 WRITEBACK ACCESS: 28559  HIT: 25064  MISS:  3495  HIT %: 87.7622  MISS %: 12.2378  AVERAGE MISS PENALTY: 0
LLC5 PREFETCH  REQUESTED:     0  ISSUED:     0  USEFUL: 53107  USELESS: 1546896
 USEFUL LOAD PREFETCHES:      53107 PREFETCH ISSUED TO LOWER LEVEL:   26803339  ACCURACY: 0.198136
 TIMELY PREFETCHES:      53107 LATE PREFETCHES: 0 DROPPED PREFETCHES: 0
LLC5 AVERAGE MISS LATENCY: 572.656 cycles
LLC6 TOTAL     ACCESS: 319271  HIT: 112406  MISS: 206865  HIT %: 35.2071  MISS %: 64.7929  AVERAGE MISS PENALTY: 570.137
LLC6 LOAD      ACCESS: 32752  HIT: 26559  MISS:  6193  HIT %: 81.0912  MISS %: 18.9088  AVERAGE MISS PENALTY: 653.503
LLC6 RFO       ACCESS:  5773  HIT:  5766  MISS:     7  HIT %: 99.8787  MISS %: 0.121254  AVERAGE MISS PENALTY: 719.143
LLC6 PREFETCH  ACCESS: 251955  HIT: 54890  MISS: 197065  HIT %: 21.7856  MISS %: 78.2144  AVERAGE MISS PENALTY: 577.927
LLC6 WRITEBACK ACCESS: 28791  HIT: 25191  MISS:  3600  HIT %: 87.4961  MISS %: 12.5039  AVERAGE MISS PENALTY: 0
LLC6 PREFETCH  REQUESTED:     0  ISSUED:     0  USEFUL: 53120  USELESS: 1546747
 USEFUL LOAD PREFETCHES:      53120 PREFETCH ISSUED TO LOWER LEVEL:   30941272  ACCURACY: 0.17168
 TIMELY PREFETCHES:      53120 LATE PREFETCHES: 0 DROPPED PREFETCHES: 0
LLC6 AVERAGE MISS LATENCY: 570.137 cycles
LLC7 TOTAL     ACCESS: 319562  HIT: 112786  MISS: 206776  HIT %: 35.2939  MISS %: 64.7061  AVERAGE MISS PENALTY: 574.393
LLC7 LOAD      ACCESS: 32208  HIT: 26316  MISS:  5892  HIT %: 81.7064  MISS %: 18.2936  AVERAGE MISS PENALTY: 662.047
LLC7 RFO       ACCESS:  5762  HIT:  5753  MISS:     9  HIT %: 99.8438  MISS %: 0.156196  AVERAGE MISS PENALTY: 468.667
LLC7 PREFETCH  ACCESS: 252563  HIT: 55218  MISS: 197345  HIT %: 21.8631  MISS %: 78.1369  AVERAGE MISS PENALTY: 582.055
LLC7 WRITEBACK ACCESS: 29029  HIT: 25499  MISS:  3530  HIT %: 87.8397  MISS %: 12.1603  AVERAGE MISS PENALTY: 0
LLC7 PREFETCH  REQUESTED:     0  ISSUED:     0  USEFUL: 53476  USELESS: 1549303
 USEFUL LOAD PREFETCHES:      53476 PREFETCH ISSUED TO LOWER LEVEL:   35975289  ACCURACY: 0.148646
 TIMELY PREFETCHES:      53476 LATE PREFETCHES: 0 DROPPED PREFETCHES: 0
LLC7 AVERAGE MISS LATENCY: 574.393 cycles
ROI Average ROB Stall Cycles:	5.53531
ROI Total ROB Stalls Cycles:	101563052
ROI TOTAL ROB counter      :	18348214
ROI Average Load ROB Stall Cycles:	22.1027
ROI Total Load ROB Stalls Cycle  :	42524181
ROI Total Load ROB stalls Counter:	1923938
Major fault: 0 Minor fault: 21776








Interconnect Stats 
LINK 0 BW : 0LINK 1 BW : 0LINK 2 BW : 0LINK 3 BW : 0LINK 4 BW : 0LINK 5 BW : 0LINK 6 BW : 0LINK 7 BW : 0
DRAM Statistics
 CHANNEL 0
 RQ ROW_BUFFER_HIT: 3423587  ROW_BUFFER_MISS: 3180089
 DBUS_CONGESTED: 5651083
 WQ ROW_BUFFER_HIT: 92147  ROW_BUFFER_MISS: 690374  FULL:     0

 CHANNEL 1
 RQ ROW_BUFFER_HIT: 3465426  ROW_BUFFER_MISS: 3137263
 DBUS_CONGESTED: 5651083
 WQ ROW_BUFFER_HIT: 92199  ROW_BUFFER_MISS: 690965  FULL:     0

 AVG_CONGESTED_CYCLE: 5
DRAM PAGES: 2097152
Allocated PAGES: 174308
L2C destructor called
L1D destructor called
L1I destructor called
STLB destructor called
DTLB destructor called
ITLB destructor called
L2C destructor called
L1D destructor called
L1I destructor called
STLB destructor called
DTLB destructor called
ITLB destructor called
L2C destructor called
L1D destructor called
L1I destructor called
STLB destructor called
DTLB destructor called
ITLB destructor called
L2C destructor called
L1D destructor called
L1I destructor called
STLB destructor called
DTLB destructor called
ITLB destructor called
L2C destructor called
L1D destructor called
L1I destructor called
STLB destructor called
DTLB destructor called
ITLB destructor called
L2C destructor called
L1D destructor called
L1I destructor called
STLB destructor called
DTLB destructor called
ITLB destructor called
L2C destructor called
L1D destructor called
L1I destructor called
STLB destructor called
DTLB destructor called
ITLB destructor called
L2C destructor called
L1D destructor called
L1I destructor called
STLB destructor called
DTLB destructor called
ITLB destructor called
