
*** ChampSim Multicore Out-of-Order Simulator ***

Warmup Instructions: 200000000
Simulation Instructions: 200000000
Number of CPUs: 8
threads:1

L1I Configuration:
L1I_SET:64
L1I_WAY:8
L1I_RQ_SIZE:64
L1I_WQ_SIZE:64
L1I_PQ_SIZE:8
L1I_MSHR_SIZE:8

L1D Configuration:
L1D_SET:64
L1D_WAY:12
L1D_RQ_SIZE:64
L1D_WQ_SIZE:64
L1D_PQ_SIZE:8
L1D_MSHR_SIZE:16

L2C Configuration:
L2C_SET:1024
L2C_WAY:8
L2C_RQ_SIZE:32
L2C_WQ_SIZE:32
L2C_PQ_SIZE:16
L2C_MSHR_SIZE:32

LLC Configuration:
LLC_SET:2048
LLC_WAY:16
LLC SLICES:8
LLC_RQ_SIZE:64
LLC_WQ_SIZE:64
LLC_PQ_SIZE:32
LLC_MSHR_SIZE:64

Interconnect OFF
Attacker deprioritize is: OFF
Off-chip DRAM Size: 8192 MB Channels: 2 Width: 64-bit Data Rate: 3200 MT/s
PAGE SIZE in KB: 4.000000 
PAGE SIZE in MB: 0.003906 
PAGE offset in bits: 12 
CEASER-S_LLC:0
MIRAGE : 1
CEASER_LATENCY:3
REMAP : OFF
Partitions : 1
Multi-Step : OFF
BFS : OFF

CPU 0 runs /home/anubhav/spec_2017/619.lbm_s-4268B.champsimtrace.xz
CPU 1 runs /home/anubhav/spec_2017/619.lbm_s-4268B.champsimtrace.xz
CPU 2 runs /home/anubhav/spec_2017/619.lbm_s-4268B.champsimtrace.xz
CPU 3 runs /home/anubhav/spec_2017/619.lbm_s-4268B.champsimtrace.xz
CPU 4 runs /home/anubhav/spec_2017/619.lbm_s-4268B.champsimtrace.xz
CPU 5 runs /home/anubhav/spec_2017/619.lbm_s-4268B.champsimtrace.xz
CPU 6 runs /home/anubhav/spec_2017/619.lbm_s-4268B.champsimtrace.xz
CPU 7 runs /home/anubhav/spec_2017/619.lbm_s-4268B.champsimtrace.xz
CPU 0 Bimodal branch predictor
Initialize Hawkeye state
Initialize Hawkeye state
Initialize Hawkeye state
Initialize Hawkeye state
Initialize Hawkeye state
Initialize Hawkeye state
Initialize Hawkeye state
Initialize Hawkeye state
CPU 1 Bimodal branch predictor
Initialize Hawkeye state
Initialize Hawkeye state
Initialize Hawkeye state
Initialize Hawkeye state
Initialize Hawkeye state
Initialize Hawkeye state
Initialize Hawkeye state
Initialize Hawkeye state
CPU 2 Bimodal branch predictor
Initialize Hawkeye state
Initialize Hawkeye state
Initialize Hawkeye state
Initialize Hawkeye state
Initialize Hawkeye state
Initialize Hawkeye state
Initialize Hawkeye state
Initialize Hawkeye state
CPU 3 Bimodal branch predictor
Initialize Hawkeye state
Initialize Hawkeye state
Initialize Hawkeye state
Initialize Hawkeye state
Initialize Hawkeye state
Initialize Hawkeye state
Initialize Hawkeye state
Initialize Hawkeye state
CPU 4 Bimodal branch predictor
Initialize Hawkeye state
Initialize Hawkeye state
Initialize Hawkeye state
Initialize Hawkeye state
Initialize Hawkeye state
Initialize Hawkeye state
Initialize Hawkeye state
Initialize Hawkeye state
CPU 5 Bimodal branch predictor
Initialize Hawkeye state
Initialize Hawkeye state
Initialize Hawkeye state
Initialize Hawkeye state
Initialize Hawkeye state
Initialize Hawkeye state
Initialize Hawkeye state
Initialize Hawkeye state
CPU 6 Bimodal branch predictor
Initialize Hawkeye state
Initialize Hawkeye state
Initialize Hawkeye state
Initialize Hawkeye state
Initialize Hawkeye state
Initialize Hawkeye state
Initialize Hawkeye state
Initialize Hawkeye state
CPU 7 Bimodal branch predictor
Initialize Hawkeye state
Initialize Hawkeye state
Initialize Hawkeye state
Initialize Hawkeye state
Initialize Hawkeye state
Initialize Hawkeye state
Initialize Hawkeye state
Initialize Hawkeye state
Heartbeat CPU 7 instructions: 10000001 cycles: 3994440 heartbeat IPC: 2.50348 cumulative IPC: 2.50348 (Simulation time: 0 hr 52 min 8 sec) 
 Total Blocks : 262144 Invalid Blocks : 0
Heartbeat CPU 5 instructions: 10000001 cycles: 3994487 heartbeat IPC: 2.50345 cumulative IPC: 2.50345 (Simulation time: 0 hr 52 min 8 sec) 
 Total Blocks : 262144 Invalid Blocks : 0
Heartbeat CPU 4 instructions: 10000001 cycles: 3994503 heartbeat IPC: 2.50344 cumulative IPC: 2.50344 (Simulation time: 0 hr 52 min 8 sec) 
 Total Blocks : 262144 Invalid Blocks : 0
Heartbeat CPU 6 instructions: 10000001 cycles: 3994530 heartbeat IPC: 2.50342 cumulative IPC: 2.50342 (Simulation time: 0 hr 52 min 8 sec) 
 Total Blocks : 262144 Invalid Blocks : 0
Heartbeat CPU 0 instructions: 10000001 cycles: 3994543 heartbeat IPC: 2.50342 cumulative IPC: 2.50342 (Simulation time: 0 hr 52 min 8 sec) 
 Total Blocks : 262144 Invalid Blocks : 0
Heartbeat CPU 3 instructions: 10000001 cycles: 3994640 heartbeat IPC: 2.50335 cumulative IPC: 2.50335 (Simulation time: 0 hr 52 min 8 sec) 
 Total Blocks : 262144 Invalid Blocks : 0
Heartbeat CPU 2 instructions: 10000001 cycles: 3994675 heartbeat IPC: 2.50333 cumulative IPC: 2.50333 (Simulation time: 0 hr 52 min 8 sec) 
 Total Blocks : 262144 Invalid Blocks : 0
Heartbeat CPU 1 instructions: 10000001 cycles: 3994704 heartbeat IPC: 2.50331 cumulative IPC: 2.50331 (Simulation time: 0 hr 52 min 9 sec) 
 Total Blocks : 262144 Invalid Blocks : 0
Heartbeat CPU 7 instructions: 20000000 cycles: 7982845 heartbeat IPC: 2.50727 cumulative IPC: 2.50537 (Simulation time: 1 hr 56 min 58 sec) 
 Total Blocks : 262144 Invalid Blocks : 0
Heartbeat CPU 3 instructions: 20000000 cycles: 7982995 heartbeat IPC: 2.5073 cumulative IPC: 2.50533 (Simulation time: 1 hr 56 min 58 sec) 
 Total Blocks : 262144 Invalid Blocks : 0
Heartbeat CPU 0 instructions: 20000000 cycles: 7983006 heartbeat IPC: 2.50723 cumulative IPC: 2.50532 (Simulation time: 1 hr 56 min 58 sec) 
 Total Blocks : 262144 Invalid Blocks : 0
Heartbeat CPU 2 instructions: 20000000 cycles: 7983024 heartbeat IPC: 2.5073 cumulative IPC: 2.50532 (Simulation time: 1 hr 56 min 58 sec) 
 Total Blocks : 262144 Invalid Blocks : 0
Heartbeat CPU 4 instructions: 20000000 cycles: 7983038 heartbeat IPC: 2.50719 cumulative IPC: 2.50531 (Simulation time: 1 hr 56 min 58 sec) 
 Total Blocks : 262144 Invalid Blocks : 0
Heartbeat CPU 6 instructions: 20000000 cycles: 7983059 heartbeat IPC: 2.50719 cumulative IPC: 2.50531 (Simulation time: 1 hr 56 min 58 sec) 
 Total Blocks : 262144 Invalid Blocks : 0
Heartbeat CPU 5 instructions: 20000000 cycles: 7983060 heartbeat IPC: 2.50716 cumulative IPC: 2.50531 (Simulation time: 1 hr 56 min 58 sec) 
 Total Blocks : 262144 Invalid Blocks : 0
Heartbeat CPU 1 instructions: 20000000 cycles: 7983238 heartbeat IPC: 2.50719 cumulative IPC: 2.50525 (Simulation time: 1 hr 56 min 58 sec) 
 Total Blocks : 262144 Invalid Blocks : 0
Heartbeat CPU 5 instructions: 30000000 cycles: 11960458 heartbeat IPC: 2.51421 cumulative IPC: 2.50827 (Simulation time: 3 hr 16 min 4 sec) 
 Total Blocks : 262144 Invalid Blocks : 0
Heartbeat CPU 7 instructions: 30000000 cycles: 11960647 heartbeat IPC: 2.51395 cumulative IPC: 2.50823 (Simulation time: 3 hr 16 min 5 sec) 
 Total Blocks : 262144 Invalid Blocks : 0
Heartbeat CPU 2 instructions: 30000000 cycles: 11960656 heartbeat IPC: 2.51406 cumulative IPC: 2.50822 (Simulation time: 3 hr 16 min 5 sec) 
 Total Blocks : 262144 Invalid Blocks : 0
Heartbeat CPU 6 instructions: 30000000 cycles: 11960700 heartbeat IPC: 2.51405 cumulative IPC: 2.50821 (Simulation time: 3 hr 16 min 5 sec) 
 Total Blocks : 262144 Invalid Blocks : 0
Heartbeat CPU 3 instructions: 30000000 cycles: 11960737 heartbeat IPC: 2.51399 cumulative IPC: 2.50821 (Simulation time: 3 hr 16 min 5 sec) 
 Total Blocks : 262144 Invalid Blocks : 0
Heartbeat CPU 4 instructions: 30000000 cycles: 11960813 heartbeat IPC: 2.51397 cumulative IPC: 2.50819 (Simulation time: 3 hr 16 min 5 sec) 
 Total Blocks : 262144 Invalid Blocks : 0
Heartbeat CPU 0 instructions: 30000000 cycles: 11960892 heartbeat IPC: 2.5139 cumulative IPC: 2.50817 (Simulation time: 3 hr 16 min 6 sec) 
 Total Blocks : 262144 Invalid Blocks : 0
Heartbeat CPU 1 instructions: 30000000 cycles: 11961024 heartbeat IPC: 2.51396 cumulative IPC: 2.50815 (Simulation time: 3 hr 16 min 6 sec) 
 Total Blocks : 262144 Invalid Blocks : 0
Heartbeat CPU 5 instructions: 40000001 cycles: 15961184 heartbeat IPC: 2.49955 cumulative IPC: 2.50608 (Simulation time: 4 hr 52 min 42 sec) 
 Total Blocks : 262144 Invalid Blocks : 0
Heartbeat CPU 6 instructions: 40000001 cycles: 15961197 heartbeat IPC: 2.49969 cumulative IPC: 2.50608 (Simulation time: 4 hr 52 min 42 sec) 
 Total Blocks : 262144 Invalid Blocks : 0
Heartbeat CPU 7 instructions: 40000001 cycles: 15961267 heartbeat IPC: 2.49961 cumulative IPC: 2.50607 (Simulation time: 4 hr 52 min 42 sec) 
 Total Blocks : 262144 Invalid Blocks : 0
Heartbeat CPU 3 instructions: 40000001 cycles: 15961293 heartbeat IPC: 2.49965 cumulative IPC: 2.50606 (Simulation time: 4 hr 52 min 42 sec) 
 Total Blocks : 262144 Invalid Blocks : 0
Heartbeat CPU 2 instructions: 40000001 cycles: 15961310 heartbeat IPC: 2.49959 cumulative IPC: 2.50606 (Simulation time: 4 hr 52 min 42 sec) 
 Total Blocks : 262144 Invalid Blocks : 0
Heartbeat CPU 4 instructions: 40000001 cycles: 15961482 heartbeat IPC: 2.49958 cumulative IPC: 2.50603 (Simulation time: 4 hr 52 min 42 sec) 
 Total Blocks : 262144 Invalid Blocks : 0
Heartbeat CPU 0 instructions: 40000001 cycles: 15961541 heartbeat IPC: 2.49959 cumulative IPC: 2.50602 (Simulation time: 4 hr 52 min 42 sec) 
 Total Blocks : 262144 Invalid Blocks : 0
Heartbeat CPU 1 instructions: 40000001 cycles: 15961814 heartbeat IPC: 2.49951 cumulative IPC: 2.50598 (Simulation time: 4 hr 52 min 43 sec) 
 Total Blocks : 262144 Invalid Blocks : 0
Heartbeat CPU 6 instructions: 50000000 cycles: 19966079 heartbeat IPC: 2.49695 cumulative IPC: 2.50425 (Simulation time: 6 hr 44 min 32 sec) 
 Total Blocks : 262144 Invalid Blocks : 0
Heartbeat CPU 5 instructions: 50000000 cycles: 19966086 heartbeat IPC: 2.49694 cumulative IPC: 2.50425 (Simulation time: 6 hr 44 min 32 sec) 
 Total Blocks : 262144 Invalid Blocks : 0
Heartbeat CPU 7 instructions: 50000000 cycles: 19966110 heartbeat IPC: 2.49698 cumulative IPC: 2.50424 (Simulation time: 6 hr 44 min 32 sec) 
 Total Blocks : 262144 Invalid Blocks : 0
Heartbeat CPU 3 instructions: 50000000 cycles: 19966205 heartbeat IPC: 2.49693 cumulative IPC: 2.50423 (Simulation time: 6 hr 44 min 32 sec) 
 Total Blocks : 262144 Invalid Blocks : 0
Heartbeat CPU 2 instructions: 50000000 cycles: 19966354 heartbeat IPC: 2.49685 cumulative IPC: 2.50421 (Simulation time: 6 hr 44 min 32 sec) 
 Total Blocks : 262144 Invalid Blocks : 0
Heartbeat CPU 4 instructions: 50000000 cycles: 19966720 heartbeat IPC: 2.49673 cumulative IPC: 2.50417 (Simulation time: 6 hr 44 min 34 sec) 
 Total Blocks : 262144 Invalid Blocks : 0
Heartbeat CPU 0 instructions: 50000000 cycles: 19967055 heartbeat IPC: 2.49656 cumulative IPC: 2.50412 (Simulation time: 6 hr 44 min 36 sec) 
 Total Blocks : 262144 Invalid Blocks : 0
Heartbeat CPU 1 instructions: 50000000 cycles: 19967156 heartbeat IPC: 2.49667 cumulative IPC: 2.50411 (Simulation time: 6 hr 44 min 36 sec) 
 Total Blocks : 262144 Invalid Blocks : 0
Heartbeat CPU 6 instructions: 60000003 cycles: 23981416 heartbeat IPC: 2.49045 cumulative IPC: 2.50194 (Simulation time: 8 hr 49 min 30 sec) 
 Total Blocks : 262144 Invalid Blocks : 0
Heartbeat CPU 5 instructions: 60000003 cycles: 23981525 heartbeat IPC: 2.49039 cumulative IPC: 2.50193 (Simulation time: 8 hr 49 min 30 sec) 
 Total Blocks : 262144 Invalid Blocks : 0
Heartbeat CPU 7 instructions: 60000003 cycles: 23981576 heartbeat IPC: 2.49037 cumulative IPC: 2.50192 (Simulation time: 8 hr 49 min 31 sec) 
 Total Blocks : 262144 Invalid Blocks : 0
Heartbeat CPU 3 instructions: 60000003 cycles: 23981649 heartbeat IPC: 2.49039 cumulative IPC: 2.50191 (Simulation time: 8 hr 49 min 31 sec) 
 Total Blocks : 262144 Invalid Blocks : 0
Heartbeat CPU 2 instructions: 60000003 cycles: 23981806 heartbeat IPC: 2.49038 cumulative IPC: 2.5019 (Simulation time: 8 hr 49 min 32 sec) 
 Total Blocks : 262144 Invalid Blocks : 0
Heartbeat CPU 4 instructions: 60000003 cycles: 23982348 heartbeat IPC: 2.49027 cumulative IPC: 2.50184 (Simulation time: 8 hr 49 min 33 sec) 
 Total Blocks : 262144 Invalid Blocks : 0
Heartbeat CPU 1 instructions: 60000003 cycles: 23982607 heartbeat IPC: 2.49038 cumulative IPC: 2.50181 (Simulation time: 8 hr 49 min 33 sec) 
 Total Blocks : 262144 Invalid Blocks : 0
Heartbeat CPU 0 instructions: 60000003 cycles: 23982812 heartbeat IPC: 2.49019 cumulative IPC: 2.50179 (Simulation time: 8 hr 49 min 34 sec) 
 Total Blocks : 262144 Invalid Blocks : 0
Heartbeat CPU 7 instructions: 70000000 cycles: 27990405 heartbeat IPC: 2.49449 cumulative IPC: 2.50086 (Simulation time: 11 hr 8 min 12 sec) 
 Total Blocks : 262144 Invalid Blocks : 0
Heartbeat CPU 6 instructions: 70000000 cycles: 27990439 heartbeat IPC: 2.49437 cumulative IPC: 2.50085 (Simulation time: 11 hr 8 min 12 sec) 
 Total Blocks : 262144 Invalid Blocks : 0
Heartbeat CPU 5 instructions: 70000000 cycles: 27990529 heartbeat IPC: 2.49438 cumulative IPC: 2.50085 (Simulation time: 11 hr 8 min 12 sec) 
 Total Blocks : 262144 Invalid Blocks : 0
Heartbeat CPU 3 instructions: 70000000 cycles: 27990725 heartbeat IPC: 2.49434 cumulative IPC: 2.50083 (Simulation time: 11 hr 8 min 12 sec) 
 Total Blocks : 262144 Invalid Blocks : 0
Heartbeat CPU 2 instructions: 70000000 cycles: 27990953 heartbeat IPC: 2.4943 cumulative IPC: 2.50081 (Simulation time: 11 hr 8 min 12 sec) 
 Total Blocks : 262144 Invalid Blocks : 0
Heartbeat CPU 4 instructions: 70000000 cycles: 27991262 heartbeat IPC: 2.49444 cumulative IPC: 2.50078 (Simulation time: 11 hr 8 min 13 sec) 
 Total Blocks : 262144 Invalid Blocks : 0
Heartbeat CPU 1 instructions: 70000000 cycles: 27991572 heartbeat IPC: 2.49441 cumulative IPC: 2.50075 (Simulation time: 11 hr 8 min 14 sec) 
 Total Blocks : 262144 Invalid Blocks : 0
Heartbeat CPU 0 instructions: 70000000 cycles: 27991782 heartbeat IPC: 2.49441 cumulative IPC: 2.50073 (Simulation time: 11 hr 8 min 14 sec) 
 Total Blocks : 262144 Invalid Blocks : 0
Heartbeat CPU 5 instructions: 80000003 cycles: 31982695 heartbeat IPC: 2.50491 cumulative IPC: 2.50135 (Simulation time: 13 hr 26 min 45 sec) 
 Total Blocks : 262144 Invalid Blocks : 0
Heartbeat CPU 7 instructions: 80000003 cycles: 31982737 heartbeat IPC: 2.5048 cumulative IPC: 2.50135 (Simulation time: 13 hr 26 min 46 sec) 
 Total Blocks : 262144 Invalid Blocks : 0
Heartbeat CPU 6 instructions: 80000003 cycles: 31982780 heartbeat IPC: 2.5048 cumulative IPC: 2.50135 (Simulation time: 13 hr 26 min 46 sec) 
 Total Blocks : 262144 Invalid Blocks : 0
Heartbeat CPU 3 instructions: 80000003 cycles: 31983132 heartbeat IPC: 2.50476 cumulative IPC: 2.50132 (Simulation time: 13 hr 26 min 47 sec) 
 Total Blocks : 262144 Invalid Blocks : 0
Heartbeat CPU 2 instructions: 80000003 cycles: 31983308 heartbeat IPC: 2.50479 cumulative IPC: 2.5013 (Simulation time: 13 hr 26 min 47 sec) 
 Total Blocks : 262144 Invalid Blocks : 0
Heartbeat CPU 4 instructions: 80000003 cycles: 31983659 heartbeat IPC: 2.50476 cumulative IPC: 2.50128 (Simulation time: 13 hr 26 min 48 sec) 
 Total Blocks : 262144 Invalid Blocks : 0
Heartbeat CPU 0 instructions: 80000003 cycles: 31984256 heartbeat IPC: 2.50471 cumulative IPC: 2.50123 (Simulation time: 13 hr 26 min 51 sec) 
 Total Blocks : 262144 Invalid Blocks : 0
Heartbeat CPU 1 instructions: 80000003 cycles: 31984351 heartbeat IPC: 2.50452 cumulative IPC: 2.50122 (Simulation time: 13 hr 26 min 51 sec) 
 Total Blocks : 262144 Invalid Blocks : 0
Heartbeat CPU 5 instructions: 90000000 cycles: 35985676 heartbeat IPC: 2.49814 cumulative IPC: 2.501 (Simulation time: 15 hr 57 min 42 sec) 
 Total Blocks : 262144 Invalid Blocks : 0
Heartbeat CPU 7 instructions: 90000000 cycles: 35985834 heartbeat IPC: 2.49807 cumulative IPC: 2.50098 (Simulation time: 15 hr 57 min 43 sec) 
 Total Blocks : 262144 Invalid Blocks : 0
Heartbeat CPU 6 instructions: 90000000 cycles: 35986073 heartbeat IPC: 2.49794 cumulative IPC: 2.50097 (Simulation time: 15 hr 57 min 43 sec) 
 Total Blocks : 262144 Invalid Blocks : 0
Heartbeat CPU 3 instructions: 90000002 cycles: 35986346 heartbeat IPC: 2.49799 cumulative IPC: 2.50095 (Simulation time: 15 hr 57 min 44 sec) 
 Total Blocks : 262144 Invalid Blocks : 0
Heartbeat CPU 2 instructions: 90000000 cycles: 35986493 heartbeat IPC: 2.49801 cumulative IPC: 2.50094 (Simulation time: 15 hr 57 min 45 sec) 
 Total Blocks : 262144 Invalid Blocks : 0
Heartbeat CPU 4 instructions: 90000000 cycles: 35986833 heartbeat IPC: 2.49802 cumulative IPC: 2.50091 (Simulation time: 15 hr 57 min 46 sec) 
 Total Blocks : 262144 Invalid Blocks : 0
Heartbeat CPU 1 instructions: 90000000 cycles: 35987559 heartbeat IPC: 2.498 cumulative IPC: 2.50086 (Simulation time: 15 hr 57 min 48 sec) 
 Total Blocks : 262144 Invalid Blocks : 0
Heartbeat CPU 0 instructions: 90000000 cycles: 35987613 heartbeat IPC: 2.4979 cumulative IPC: 2.50086 (Simulation time: 15 hr 57 min 48 sec) 
 Total Blocks : 262144 Invalid Blocks : 0
Heartbeat CPU 5 instructions: 100000003 cycles: 39975810 heartbeat IPC: 2.50618 cumulative IPC: 2.50151 (Simulation time: 18 hr 37 min 42 sec) 
 Total Blocks : 262144 Invalid Blocks : 0
Heartbeat CPU 7 instructions: 100000003 cycles: 39976144 heartbeat IPC: 2.50607 cumulative IPC: 2.50149 (Simulation time: 18 hr 37 min 43 sec) 
 Total Blocks : 262144 Invalid Blocks : 0
Heartbeat CPU 6 instructions: 100000003 cycles: 39976431 heartbeat IPC: 2.50604 cumulative IPC: 2.50147 (Simulation time: 18 hr 37 min 44 sec) 
 Total Blocks : 262144 Invalid Blocks : 0
Heartbeat CPU 4 instructions: 100000003 cycles: 39976950 heartbeat IPC: 2.50619 cumulative IPC: 2.50144 (Simulation time: 18 hr 37 min 45 sec) 
 Total Blocks : 262144 Invalid Blocks : 0
Heartbeat CPU 3 instructions: 100000003 cycles: 39977004 heartbeat IPC: 2.50585 cumulative IPC: 2.50144 (Simulation time: 18 hr 37 min 45 sec) 
 Total Blocks : 262144 Invalid Blocks : 0
Heartbeat CPU 2 instructions: 100000003 cycles: 39977206 heartbeat IPC: 2.50582 cumulative IPC: 2.50143 (Simulation time: 18 hr 37 min 46 sec) 
 Total Blocks : 262144 Invalid Blocks : 0
Heartbeat CPU 1 instructions: 100000003 cycles: 39977947 heartbeat IPC: 2.50602 cumulative IPC: 2.50138 (Simulation time: 18 hr 37 min 49 sec) 
 Total Blocks : 262144 Invalid Blocks : 0
Heartbeat CPU 0 instructions: 100000003 cycles: 39978013 heartbeat IPC: 2.50602 cumulative IPC: 2.50137 (Simulation time: 18 hr 37 min 50 sec) 
 Total Blocks : 262144 Invalid Blocks : 0
Heartbeat CPU 5 instructions: 110000000 cycles: 43978303 heartbeat IPC: 2.49844 cumulative IPC: 2.50123 (Simulation time: 21 hr 27 min 57 sec) 
 Total Blocks : 262144 Invalid Blocks : 0
Heartbeat CPU 6 instructions: 110000000 cycles: 43978607 heartbeat IPC: 2.49864 cumulative IPC: 2.50122 (Simulation time: 21 hr 27 min 57 sec) 
 Total Blocks : 262144 Invalid Blocks : 0
Heartbeat CPU 7 instructions: 110000000 cycles: 43978821 heartbeat IPC: 2.49833 cumulative IPC: 2.5012 (Simulation time: 21 hr 27 min 57 sec) 
 Total Blocks : 262144 Invalid Blocks : 0
Heartbeat CPU 3 instructions: 110000000 cycles: 43979268 heartbeat IPC: 2.49858 cumulative IPC: 2.50118 (Simulation time: 21 hr 27 min 58 sec) 
 Total Blocks : 262144 Invalid Blocks : 0
Heartbeat CPU 4 instructions: 110000000 cycles: 43979509 heartbeat IPC: 2.4984 cumulative IPC: 2.50116 (Simulation time: 21 hr 27 min 58 sec) 
 Total Blocks : 262144 Invalid Blocks : 0
Heartbeat CPU 2 instructions: 110000000 cycles: 43979701 heartbeat IPC: 2.49844 cumulative IPC: 2.50115 (Simulation time: 21 hr 27 min 59 sec) 
 Total Blocks : 262144 Invalid Blocks : 0
Heartbeat CPU 1 instructions: 110000000 cycles: 43980169 heartbeat IPC: 2.49861 cumulative IPC: 2.50113 (Simulation time: 21 hr 28 min 0 sec) 
 Total Blocks : 262144 Invalid Blocks : 0
Heartbeat CPU 0 instructions: 110000000 cycles: 43980311 heartbeat IPC: 2.49856 cumulative IPC: 2.50112 (Simulation time: 21 hr 28 min 0 sec) 
 Total Blocks : 262144 Invalid Blocks : 0
Heartbeat CPU 6 instructions: 120000000 cycles: 47996335 heartbeat IPC: 2.48897 cumulative IPC: 2.50019 (Simulation time: 24 hr 2 min 27 sec) 
 Total Blocks : 262144 Invalid Blocks : 0
Heartbeat CPU 5 instructions: 120000000 cycles: 47996675 heartbeat IPC: 2.48857 cumulative IPC: 2.50017 (Simulation time: 24 hr 2 min 29 sec) 
 Total Blocks : 262144 Invalid Blocks : 0
Heartbeat CPU 7 instructions: 120000000 cycles: 47996890 heartbeat IPC: 2.48876 cumulative IPC: 2.50016 (Simulation time: 24 hr 2 min 29 sec) 
 Total Blocks : 262144 Invalid Blocks : 0
Heartbeat CPU 3 instructions: 120000000 cycles: 47997486 heartbeat IPC: 2.48867 cumulative IPC: 2.50013 (Simulation time: 24 hr 2 min 31 sec) 
 Total Blocks : 262144 Invalid Blocks : 0
Heartbeat CPU 4 instructions: 120000000 cycles: 47997555 heartbeat IPC: 2.48877 cumulative IPC: 2.50013 (Simulation time: 24 hr 2 min 31 sec) 
 Total Blocks : 262144 Invalid Blocks : 0
Heartbeat CPU 2 instructions: 120000000 cycles: 47997947 heartbeat IPC: 2.48865 cumulative IPC: 2.50011 (Simulation time: 24 hr 2 min 31 sec) 
 Total Blocks : 262144 Invalid Blocks : 0
Heartbeat CPU 1 instructions: 120000000 cycles: 47998304 heartbeat IPC: 2.48872 cumulative IPC: 2.50009 (Simulation time: 24 hr 2 min 32 sec) 
 Total Blocks : 262144 Invalid Blocks : 0
Heartbeat CPU 0 instructions: 120000000 cycles: 47998645 heartbeat IPC: 2.48859 cumulative IPC: 2.50007 (Simulation time: 24 hr 2 min 33 sec) 
 Total Blocks : 262144 Invalid Blocks : 0
Heartbeat CPU 6 instructions: 130000003 cycles: 51984861 heartbeat IPC: 2.50719 cumulative IPC: 2.50073 (Simulation time: 26 hr 45 min 14 sec) 
 Total Blocks : 262144 Invalid Blocks : 0
Heartbeat CPU 5 instructions: 130000003 cycles: 51985051 heartbeat IPC: 2.50729 cumulative IPC: 2.50072 (Simulation time: 26 hr 45 min 15 sec) 
 Total Blocks : 262144 Invalid Blocks : 0
Heartbeat CPU 7 instructions: 130000003 cycles: 51985491 heartbeat IPC: 2.50715 cumulative IPC: 2.5007 (Simulation time: 26 hr 45 min 15 sec) 
 Total Blocks : 262144 Invalid Blocks : 0
Heartbeat CPU 4 instructions: 130000003 cycles: 51986225 heartbeat IPC: 2.5071 cumulative IPC: 2.50066 (Simulation time: 26 hr 45 min 17 sec) 
 Total Blocks : 262144 Invalid Blocks : 0
Heartbeat CPU 3 instructions: 130000003 cycles: 51986328 heartbeat IPC: 2.50699 cumulative IPC: 2.50066 (Simulation time: 26 hr 45 min 17 sec) 
 Total Blocks : 262144 Invalid Blocks : 0
Heartbeat CPU 2 instructions: 130000003 cycles: 51986764 heartbeat IPC: 2.50701 cumulative IPC: 2.50064 (Simulation time: 26 hr 45 min 17 sec) 
 Total Blocks : 262144 Invalid Blocks : 0
Heartbeat CPU 0 instructions: 130000003 cycles: 51987007 heartbeat IPC: 2.5073 cumulative IPC: 2.50062 (Simulation time: 26 hr 45 min 18 sec) 
 Total Blocks : 262144 Invalid Blocks : 0
Heartbeat CPU 1 instructions: 130000003 cycles: 51987113 heartbeat IPC: 2.50701 cumulative IPC: 2.50062 (Simulation time: 26 hr 45 min 18 sec) 
 Total Blocks : 262144 Invalid Blocks : 0
Heartbeat CPU 5 instructions: 140000001 cycles: 55985271 heartbeat IPC: 2.49986 cumulative IPC: 2.50066 (Simulation time: 30 hr 23 min 18 sec) 
 Total Blocks : 262144 Invalid Blocks : 0
Heartbeat CPU 6 instructions: 140000001 cycles: 55985389 heartbeat IPC: 2.49967 cumulative IPC: 2.50065 (Simulation time: 30 hr 23 min 18 sec) 
 Total Blocks : 262144 Invalid Blocks : 0
Heartbeat CPU 7 instructions: 140000001 cycles: 55986078 heartbeat IPC: 2.49963 cumulative IPC: 2.50062 (Simulation time: 30 hr 23 min 20 sec) 
 Total Blocks : 262144 Invalid Blocks : 0
Heartbeat CPU 4 instructions: 140000001 cycles: 55986769 heartbeat IPC: 2.49966 cumulative IPC: 2.50059 (Simulation time: 30 hr 23 min 24 sec) 
 Total Blocks : 262144 Invalid Blocks : 0
Heartbeat CPU 3 instructions: 140000001 cycles: 55986937 heartbeat IPC: 2.49962 cumulative IPC: 2.50058 (Simulation time: 30 hr 23 min 25 sec) 
 Total Blocks : 262144 Invalid Blocks : 0
Heartbeat CPU 2 instructions: 140000001 cycles: 55986961 heartbeat IPC: 2.49988 cumulative IPC: 2.50058 (Simulation time: 30 hr 23 min 25 sec) 
 Total Blocks : 262144 Invalid Blocks : 0
Heartbeat CPU 0 instructions: 140000001 cycles: 55987256 heartbeat IPC: 2.49984 cumulative IPC: 2.50057 (Simulation time: 30 hr 23 min 25 sec) 
 Total Blocks : 262144 Invalid Blocks : 0
Heartbeat CPU 1 instructions: 140000001 cycles: 55987455 heartbeat IPC: 2.49979 cumulative IPC: 2.50056 (Simulation time: 30 hr 23 min 25 sec) 
 Total Blocks : 262144 Invalid Blocks : 0
Heartbeat CPU 6 instructions: 150000000 cycles: 60001845 heartbeat IPC: 2.48976 cumulative IPC: 2.49992 (Simulation time: 34 hr 21 min 34 sec) 
 Total Blocks : 262144 Invalid Blocks : 0
Heartbeat CPU 5 instructions: 150000000 cycles: 60002024 heartbeat IPC: 2.48957 cumulative IPC: 2.49992 (Simulation time: 34 hr 21 min 35 sec) 
 Total Blocks : 262144 Invalid Blocks : 0
Heartbeat CPU 7 instructions: 150000000 cycles: 60002109 heartbeat IPC: 2.49002 cumulative IPC: 2.49991 (Simulation time: 34 hr 21 min 37 sec) 
 Total Blocks : 262144 Invalid Blocks : 0
Heartbeat CPU 2 instructions: 150000000 cycles: 60003432 heartbeat IPC: 2.48975 cumulative IPC: 2.49986 (Simulation time: 34 hr 21 min 42 sec) 
 Total Blocks : 262144 Invalid Blocks : 0
Heartbeat CPU 4 instructions: 150000000 cycles: 60003509 heartbeat IPC: 2.48958 cumulative IPC: 2.49985 (Simulation time: 34 hr 21 min 43 sec) 
 Total Blocks : 262144 Invalid Blocks : 0
Heartbeat CPU 0 instructions: 150000000 cycles: 60003569 heartbeat IPC: 2.48985 cumulative IPC: 2.49985 (Simulation time: 34 hr 21 min 43 sec) 
 Total Blocks : 262144 Invalid Blocks : 0
Heartbeat CPU 3 instructions: 150000000 cycles: 60003606 heartbeat IPC: 2.48962 cumulative IPC: 2.49985 (Simulation time: 34 hr 21 min 43 sec) 
 Total Blocks : 262144 Invalid Blocks : 0
Heartbeat CPU 1 instructions: 150000000 cycles: 60003917 heartbeat IPC: 2.48975 cumulative IPC: 2.49984 (Simulation time: 34 hr 21 min 44 sec) 
 Total Blocks : 262144 Invalid Blocks : 0
Heartbeat CPU 5 instructions: 160000000 cycles: 64027099 heartbeat IPC: 2.48443 cumulative IPC: 2.49894 (Simulation time: 39 hr 5 min 19 sec) 
 Total Blocks : 262144 Invalid Blocks : 0
Heartbeat CPU 6 instructions: 160000000 cycles: 64027121 heartbeat IPC: 2.4843 cumulative IPC: 2.49894 (Simulation time: 39 hr 5 min 19 sec) 
 Total Blocks : 262144 Invalid Blocks : 0
Heartbeat CPU 7 instructions: 160000000 cycles: 64027199 heartbeat IPC: 2.48442 cumulative IPC: 2.49894 (Simulation time: 39 hr 5 min 19 sec) 
 Total Blocks : 262144 Invalid Blocks : 0
Heartbeat CPU 2 instructions: 160000002 cycles: 64028288 heartbeat IPC: 2.48456 cumulative IPC: 2.4989 (Simulation time: 39 hr 5 min 26 sec) 
 Total Blocks : 262144 Invalid Blocks : 0
Heartbeat CPU 0 instructions: 160000000 cycles: 64028461 heartbeat IPC: 2.48454 cumulative IPC: 2.49889 (Simulation time: 39 hr 5 min 26 sec) 
 Total Blocks : 262144 Invalid Blocks : 0
Heartbeat CPU 4 instructions: 160000000 cycles: 64028728 heartbeat IPC: 2.48434 cumulative IPC: 2.49888 (Simulation time: 39 hr 5 min 28 sec) 
 Total Blocks : 262144 Invalid Blocks : 0
Heartbeat CPU 3 instructions: 160000000 cycles: 64028845 heartbeat IPC: 2.48432 cumulative IPC: 2.49887 (Simulation time: 39 hr 5 min 29 sec) 
 Total Blocks : 262144 Invalid Blocks : 0
Heartbeat CPU 1 instructions: 160000000 cycles: 64029182 heartbeat IPC: 2.48431 cumulative IPC: 2.49886 (Simulation time: 39 hr 5 min 29 sec) 
 Total Blocks : 262144 Invalid Blocks : 0
Heartbeat CPU 6 instructions: 170000003 cycles: 68045017 heartbeat IPC: 2.48887 cumulative IPC: 2.49835 (Simulation time: 43 hr 41 min 35 sec) 
 Total Blocks : 262144 Invalid Blocks : 0
Heartbeat CPU 5 instructions: 170000003 cycles: 68045436 heartbeat IPC: 2.48859 cumulative IPC: 2.49833 (Simulation time: 43 hr 41 min 38 sec) 
 Total Blocks : 262144 Invalid Blocks : 0
Heartbeat CPU 7 instructions: 170000003 cycles: 68045539 heartbeat IPC: 2.48859 cumulative IPC: 2.49833 (Simulation time: 43 hr 41 min 39 sec) 
 Total Blocks : 262144 Invalid Blocks : 0
Heartbeat CPU 2 instructions: 170000003 cycles: 68046477 heartbeat IPC: 2.48868 cumulative IPC: 2.49829 (Simulation time: 43 hr 41 min 42 sec) 
 Total Blocks : 262144 Invalid Blocks : 0
Heartbeat CPU 3 instructions: 170000003 cycles: 68046640 heartbeat IPC: 2.48893 cumulative IPC: 2.49829 (Simulation time: 43 hr 41 min 43 sec) 
 Total Blocks : 262144 Invalid Blocks : 0
Heartbeat CPU 4 instructions: 170000003 cycles: 68046666 heartbeat IPC: 2.48884 cumulative IPC: 2.49829 (Simulation time: 43 hr 41 min 43 sec) 
 Total Blocks : 262144 Invalid Blocks : 0
Heartbeat CPU 0 instructions: 170000003 cycles: 68046753 heartbeat IPC: 2.48862 cumulative IPC: 2.49828 (Simulation time: 43 hr 41 min 45 sec) 
 Total Blocks : 262144 Invalid Blocks : 0
Heartbeat CPU 1 instructions: 170000003 cycles: 68047470 heartbeat IPC: 2.48862 cumulative IPC: 2.49826 (Simulation time: 43 hr 41 min 49 sec) 
 Total Blocks : 262144 Invalid Blocks : 0
Heartbeat CPU 6 instructions: 180000003 cycles: 72058673 heartbeat IPC: 2.49149 cumulative IPC: 2.49796 (Simulation time: 48 hr 30 min 24 sec) 
 Total Blocks : 262144 Invalid Blocks : 0
Heartbeat CPU 7 instructions: 180000003 cycles: 72059178 heartbeat IPC: 2.4915 cumulative IPC: 2.49795 (Simulation time: 48 hr 30 min 24 sec) 
 Total Blocks : 262144 Invalid Blocks : 0
Heartbeat CPU 5 instructions: 180000003 cycles: 72059258 heartbeat IPC: 2.49139 cumulative IPC: 2.49794 (Simulation time: 48 hr 30 min 24 sec) 
 Total Blocks : 262144 Invalid Blocks : 0
Heartbeat CPU 3 instructions: 180000003 cycles: 72060201 heartbeat IPC: 2.49155 cumulative IPC: 2.49791 (Simulation time: 48 hr 30 min 27 sec) 
 Total Blocks : 262144 Invalid Blocks : 0
Heartbeat CPU 2 instructions: 180000003 cycles: 72060352 heartbeat IPC: 2.49136 cumulative IPC: 2.49791 (Simulation time: 48 hr 30 min 27 sec) 
 Total Blocks : 262144 Invalid Blocks : 0
Heartbeat CPU 4 instructions: 180000003 cycles: 72060458 heartbeat IPC: 2.49141 cumulative IPC: 2.4979 (Simulation time: 48 hr 30 min 27 sec) 
 Total Blocks : 262144 Invalid Blocks : 0
Heartbeat CPU 0 instructions: 180000003 cycles: 72061174 heartbeat IPC: 2.49102 cumulative IPC: 2.49788 (Simulation time: 48 hr 30 min 29 sec) 
 Total Blocks : 262144 Invalid Blocks : 0
Heartbeat CPU 1 instructions: 180000003 cycles: 72061199 heartbeat IPC: 2.49145 cumulative IPC: 2.49788 (Simulation time: 48 hr 30 min 29 sec) 
 Total Blocks : 262144 Invalid Blocks : 0
Heartbeat CPU 6 instructions: 190000001 cycles: 76080117 heartbeat IPC: 2.48667 cumulative IPC: 2.49737 (Simulation time: 53 hr 38 min 58 sec) 
 Total Blocks : 262144 Invalid Blocks : 0
Heartbeat CPU 5 instructions: 190000001 cycles: 76080735 heartbeat IPC: 2.48665 cumulative IPC: 2.49735 (Simulation time: 53 hr 39 min 2 sec) 
 Total Blocks : 262144 Invalid Blocks : 0
Heartbeat CPU 7 instructions: 190000001 cycles: 76081056 heartbeat IPC: 2.4864 cumulative IPC: 2.49734 (Simulation time: 53 hr 39 min 6 sec) 
 Total Blocks : 262144 Invalid Blocks : 0
Heartbeat CPU 3 instructions: 190000001 cycles: 76081758 heartbeat IPC: 2.4866 cumulative IPC: 2.49731 (Simulation time: 53 hr 39 min 8 sec) 
 Total Blocks : 262144 Invalid Blocks : 0
Heartbeat CPU 2 instructions: 190000001 cycles: 76082055 heartbeat IPC: 2.48651 cumulative IPC: 2.4973 (Simulation time: 53 hr 39 min 10 sec) 
 Total Blocks : 262144 Invalid Blocks : 0
Heartbeat CPU 4 instructions: 190000001 cycles: 76082057 heartbeat IPC: 2.48657 cumulative IPC: 2.4973 (Simulation time: 53 hr 39 min 10 sec) 
 Total Blocks : 262144 Invalid Blocks : 0
Heartbeat CPU 1 instructions: 190000001 cycles: 76082967 heartbeat IPC: 2.48647 cumulative IPC: 2.49727 (Simulation time: 53 hr 39 min 14 sec) 
 Total Blocks : 262144 Invalid Blocks : 0
Heartbeat CPU 0 instructions: 190000001 cycles: 76083126 heartbeat IPC: 2.48635 cumulative IPC: 2.49727 (Simulation time: 53 hr 39 min 16 sec) 
 Total Blocks : 262144 Invalid Blocks : 0
Heartbeat CPU 6 instructions: 200000001 cycles: 80091108 heartbeat IPC: 2.49315 cumulative IPC: 2.49716 (Simulation time: 58 hr 48 min 22 sec) 
 Total Blocks : 262144 Invalid Blocks : 0
Heartbeat CPU 5 instructions: 200000001 cycles: 80091714 heartbeat IPC: 2.49316 cumulative IPC: 2.49714 (Simulation time: 58 hr 48 min 25 sec) 
 Total Blocks : 262144 Invalid Blocks : 0
Heartbeat CPU 7 instructions: 200000001 cycles: 80092119 heartbeat IPC: 2.4931 cumulative IPC: 2.49712 (Simulation time: 58 hr 48 min 26 sec) 
 Total Blocks : 262144 Invalid Blocks : 0
Heartbeat CPU 3 instructions: 200000001 cycles: 80093240 heartbeat IPC: 2.49284 cumulative IPC: 2.49709 (Simulation time: 58 hr 48 min 33 sec) 
 Total Blocks : 262144 Invalid Blocks : 0
Heartbeat CPU 4 instructions: 200000001 cycles: 80093308 heartbeat IPC: 2.49299 cumulative IPC: 2.49709 (Simulation time: 58 hr 48 min 33 sec) 
 Total Blocks : 262144 Invalid Blocks : 0
Heartbeat CPU 2 instructions: 200000001 cycles: 80093366 heartbeat IPC: 2.49295 cumulative IPC: 2.49709 (Simulation time: 58 hr 48 min 33 sec) 
 Total Blocks : 262144 Invalid Blocks : 0
Heartbeat CPU 1 instructions: 200000001 cycles: 80094144 heartbeat IPC: 2.49303 cumulative IPC: 2.49706 (Simulation time: 58 hr 48 min 38 sec) 
 Total Blocks : 262144 Invalid Blocks : 0
Heartbeat CPU 0 instructions: 200000001 cycles: 80094657 heartbeat IPC: 2.49281 cumulative IPC: 2.49705 (Simulation time: 58 hr 48 min 41 sec) 
 Total Blocks : 262144 Invalid Blocks : 0

Warmup complete CPU 0 instructions: 200000001 cycles: 80094657 (Simulation time: 58 hr 48 min 41 sec) 
Warmup complete CPU 1 instructions: 200000820 cycles: 80094656 (Simulation time: 58 hr 48 min 41 sec) 
Warmup complete CPU 2 instructions: 200002183 cycles: 80094656 (Simulation time: 58 hr 48 min 41 sec) 
Warmup complete CPU 3 instructions: 200002584 cycles: 80094656 (Simulation time: 58 hr 48 min 41 sec) 
Warmup complete CPU 4 instructions: 200002401 cycles: 80094656 (Simulation time: 58 hr 48 min 41 sec) 
Warmup complete CPU 5 instructions: 200006757 cycles: 80094656 (Simulation time: 58 hr 48 min 41 sec) 
Warmup complete CPU 6 instructions: 200008365 cycles: 80094656 (Simulation time: 58 hr 48 min 41 sec) 
Warmup complete CPU 7 instructions: 200005696 cycles: 80094656 (Simulation time: 58 hr 48 min 41 sec) 

Heartbeat CPU 7 instructions: 210000002 cycles: 162323345 heartbeat IPC: 0.121608 cumulative IPC: 0.121543 (Simulation time: 67 hr 47 min 50 sec) 
 Total Blocks : 262144 Invalid Blocks : 0
Heartbeat CPU 1 instructions: 210000000 cycles: 162424655 heartbeat IPC: 0.121462 cumulative IPC: 0.121452 (Simulation time: 67 hr 48 min 30 sec) 
 Total Blocks : 262144 Invalid Blocks : 0
Heartbeat CPU 0 instructions: 210000000 cycles: 162446009 heartbeat IPC: 0.121431 cumulative IPC: 0.121431 (Simulation time: 67 hr 48 min 39 sec) 
 Total Blocks : 262144 Invalid Blocks : 0
Heartbeat CPU 5 instructions: 210000002 cycles: 162472929 heartbeat IPC: 0.121387 cumulative IPC: 0.121309 (Simulation time: 67 hr 48 min 51 sec) 
 Total Blocks : 262144 Invalid Blocks : 0
Heartbeat CPU 6 instructions: 210000001 cycles: 162692798 heartbeat IPC: 0.121063 cumulative IPC: 0.120967 (Simulation time: 67 hr 50 min 9 sec) 
 Total Blocks : 262144 Invalid Blocks : 0
Heartbeat CPU 4 instructions: 210000000 cycles: 162966449 heartbeat IPC: 0.120666 cumulative IPC: 0.120639 (Simulation time: 67 hr 51 min 58 sec) 
 Total Blocks : 262144 Invalid Blocks : 0
Heartbeat CPU 2 instructions: 210000000 cycles: 163175066 heartbeat IPC: 0.120363 cumulative IPC: 0.120339 (Simulation time: 67 hr 53 min 27 sec) 
 Total Blocks : 262144 Invalid Blocks : 0
Heartbeat CPU 3 instructions: 210000002 cycles: 163555866 heartbeat IPC: 0.119814 cumulative IPC: 0.119785 (Simulation time: 67 hr 55 min 57 sec) 
 Total Blocks : 262144 Invalid Blocks : 0
Heartbeat CPU 1 instructions: 220000000 cycles: 245810687 heartbeat IPC: 0.119924 cumulative IPC: 0.120683 (Simulation time: 76 hr 24 min 9 sec) 
 Total Blocks : 262144 Invalid Blocks : 0
Heartbeat CPU 7 instructions: 220000000 cycles: 245924031 heartbeat IPC: 0.119616 cumulative IPC: 0.120572 (Simulation time: 76 hr 24 min 40 sec) 
 Total Blocks : 262144 Invalid Blocks : 0
Heartbeat CPU 0 instructions: 220000000 cycles: 246016404 heartbeat IPC: 0.11966 cumulative IPC: 0.120539 (Simulation time: 76 hr 25 min 8 sec) 
 Total Blocks : 262144 Invalid Blocks : 0
Heartbeat CPU 5 instructions: 220000000 cycles: 246163738 heartbeat IPC: 0.119487 cumulative IPC: 0.120391 (Simulation time: 76 hr 26 min 1 sec) 
 Total Blocks : 262144 Invalid Blocks : 0
Heartbeat CPU 6 instructions: 220000000 cycles: 246412177 heartbeat IPC: 0.119447 cumulative IPC: 0.120202 (Simulation time: 76 hr 27 min 15 sec) 
 Total Blocks : 262144 Invalid Blocks : 0
Heartbeat CPU 4 instructions: 220000000 cycles: 246806137 heartbeat IPC: 0.119275 cumulative IPC: 0.119953 (Simulation time: 76 hr 29 min 14 sec) 
 Total Blocks : 262144 Invalid Blocks : 0
Heartbeat CPU 2 instructions: 220000000 cycles: 247037518 heartbeat IPC: 0.119243 cumulative IPC: 0.119788 (Simulation time: 76 hr 30 min 24 sec) 
 Total Blocks : 262144 Invalid Blocks : 0
Heartbeat CPU 3 instructions: 220000000 cycles: 247955060 heartbeat IPC: 0.118485 cumulative IPC: 0.119131 (Simulation time: 76 hr 35 min 20 sec) 
 Total Blocks : 262144 Invalid Blocks : 0
Heartbeat CPU 0 instructions: 230000003 cycles: 327799407 heartbeat IPC: 0.122275 cumulative IPC: 0.121112 (Simulation time: 83 hr 14 min 30 sec) 
 Total Blocks : 262144 Invalid Blocks : 0
Heartbeat CPU 7 instructions: 230000003 cycles: 327836844 heartbeat IPC: 0.122081 cumulative IPC: 0.121071 (Simulation time: 83 hr 14 min 43 sec) 
 Total Blocks : 262144 Invalid Blocks : 0
Heartbeat CPU 6 instructions: 230000003 cycles: 328135008 heartbeat IPC: 0.122365 cumulative IPC: 0.120914 (Simulation time: 83 hr 16 min 14 sec) 
 Total Blocks : 262144 Invalid Blocks : 0
Heartbeat CPU 1 instructions: 230000003 cycles: 328172335 heartbeat IPC: 0.121416 cumulative IPC: 0.120927 (Simulation time: 83 hr 16 min 26 sec) 
 Total Blocks : 262144 Invalid Blocks : 0
Heartbeat CPU 5 instructions: 230000003 cycles: 328427080 heartbeat IPC: 0.121561 cumulative IPC: 0.120779 (Simulation time: 83 hr 17 min 44 sec) 
 Total Blocks : 262144 Invalid Blocks : 0
Heartbeat CPU 4 instructions: 230000003 cycles: 328609868 heartbeat IPC: 0.122244 cumulative IPC: 0.120707 (Simulation time: 83 hr 18 min 35 sec) 
 Total Blocks : 262144 Invalid Blocks : 0
Heartbeat CPU 2 instructions: 230000003 cycles: 328834511 heartbeat IPC: 0.122254 cumulative IPC: 0.120599 (Simulation time: 83 hr 19 min 46 sec) 
 Total Blocks : 262144 Invalid Blocks : 0
Heartbeat CPU 3 instructions: 230000003 cycles: 330752140 heartbeat IPC: 0.120777 cumulative IPC: 0.119675 (Simulation time: 83 hr 29 min 36 sec) 
 Total Blocks : 262144 Invalid Blocks : 0
Heartbeat CPU 0 instructions: 240000000 cycles: 410745697 heartbeat IPC: 0.12056 cumulative IPC: 0.120973 (Simulation time: 90 hr 27 min 8 sec) 
 Total Blocks : 262144 Invalid Blocks : 0
Heartbeat CPU 7 instructions: 240000000 cycles: 411174478 heartbeat IPC: 0.119994 cumulative IPC: 0.1208 (Simulation time: 90 hr 29 min 19 sec) 
 Total Blocks : 262144 Invalid Blocks : 0
Heartbeat CPU 6 instructions: 240000001 cycles: 411184608 heartbeat IPC: 0.12041 cumulative IPC: 0.120788 (Simulation time: 90 hr 29 min 23 sec) 
 Total Blocks : 262144 Invalid Blocks : 0
Heartbeat CPU 4 instructions: 240000001 cycles: 411709023 heartbeat IPC: 0.120338 cumulative IPC: 0.120615 (Simulation time: 90 hr 32 min 4 sec) 
 Total Blocks : 262144 Invalid Blocks : 0
Heartbeat CPU 5 instructions: 240000001 cycles: 411971602 heartbeat IPC: 0.119697 cumulative IPC: 0.120506 (Simulation time: 90 hr 33 min 25 sec) 
 Total Blocks : 262144 Invalid Blocks : 0
Heartbeat CPU 1 instructions: 240000001 cycles: 412007276 heartbeat IPC: 0.119282 cumulative IPC: 0.120511 (Simulation time: 90 hr 33 min 35 sec) 
 Total Blocks : 262144 Invalid Blocks : 0
Heartbeat CPU 2 instructions: 240000000 cycles: 412026216 heartbeat IPC: 0.120204 cumulative IPC: 0.1205 (Simulation time: 90 hr 33 min 41 sec) 
 Total Blocks : 262144 Invalid Blocks : 0
Heartbeat CPU 3 instructions: 240000000 cycles: 415013024 heartbeat IPC: 0.118679 cumulative IPC: 0.119424 (Simulation time: 90 hr 49 min 43 sec) 
 Total Blocks : 262144 Invalid Blocks : 0
Heartbeat CPU 0 instructions: 250000000 cycles: 491542892 heartbeat IPC: 0.123767 cumulative IPC: 0.121522 (Simulation time: 97 hr 37 min 47 sec) 
 Total Blocks : 262144 Invalid Blocks : 0
Heartbeat CPU 6 instructions: 250000000 cycles: 492011756 heartbeat IPC: 0.123721 cumulative IPC: 0.121363 (Simulation time: 97 hr 40 min 9 sec) 
 Total Blocks : 262144 Invalid Blocks : 0
Heartbeat CPU 7 instructions: 250000001 cycles: 492398755 heartbeat IPC: 0.123116 cumulative IPC: 0.121256 (Simulation time: 97 hr 42 min 10 sec) 
 Total Blocks : 262144 Invalid Blocks : 0
Heartbeat CPU 4 instructions: 250000001 cycles: 492598100 heartbeat IPC: 0.123626 cumulative IPC: 0.121205 (Simulation time: 97 hr 43 min 18 sec) 
 Total Blocks : 262144 Invalid Blocks : 0
Heartbeat CPU 2 instructions: 250000000 cycles: 492687633 heartbeat IPC: 0.123975 cumulative IPC: 0.12118 (Simulation time: 97 hr 43 min 45 sec) 
 Total Blocks : 262144 Invalid Blocks : 0
Heartbeat CPU 1 instructions: 250000000 cycles: 493499349 heartbeat IPC: 0.122711 cumulative IPC: 0.120945 (Simulation time: 97 hr 48 min 4 sec) 
 Total Blocks : 262144 Invalid Blocks : 0
Heartbeat CPU 5 instructions: 250000001 cycles: 493626252 heartbeat IPC: 0.122467 cumulative IPC: 0.120893 (Simulation time: 97 hr 48 min 46 sec) 
 Total Blocks : 262144 Invalid Blocks : 0
Heartbeat CPU 3 instructions: 250000000 cycles: 496436399 heartbeat IPC: 0.122815 cumulative IPC: 0.120087 (Simulation time: 98 hr 4 min 6 sec) 
 Total Blocks : 262144 Invalid Blocks : 0
Heartbeat CPU 0 instructions: 260000001 cycles: 572319393 heartbeat IPC: 0.123798 cumulative IPC: 0.121896 (Simulation time: 104 hr 59 min 1 sec) 
 Total Blocks : 262144 Invalid Blocks : 0
Heartbeat CPU 6 instructions: 260000001 cycles: 572861436 heartbeat IPC: 0.123686 cumulative IPC: 0.121744 (Simulation time: 105 hr 1 min 57 sec) 
 Total Blocks : 262144 Invalid Blocks : 0
Heartbeat CPU 4 instructions: 260000001 cycles: 573366460 heartbeat IPC: 0.123811 cumulative IPC: 0.121632 (Simulation time: 105 hr 4 min 47 sec) 
 Total Blocks : 262144 Invalid Blocks : 0
Heartbeat CPU 7 instructions: 260000001 cycles: 573647216 heartbeat IPC: 0.123079 cumulative IPC: 0.121556 (Simulation time: 105 hr 6 min 23 sec) 
 Total Blocks : 262144 Invalid Blocks : 0
Heartbeat CPU 2 instructions: 260000001 cycles: 573817462 heartbeat IPC: 0.123259 cumulative IPC: 0.121521 (Simulation time: 105 hr 7 min 21 sec) 
 Total Blocks : 262144 Invalid Blocks : 0
Heartbeat CPU 5 instructions: 260000001 cycles: 574454297 heartbeat IPC: 0.123719 cumulative IPC: 0.121355 (Simulation time: 105 hr 10 min 40 sec) 
 Total Blocks : 262144 Invalid Blocks : 0
Heartbeat CPU 1 instructions: 260000001 cycles: 574715177 heartbeat IPC: 0.123129 cumulative IPC: 0.121303 (Simulation time: 105 hr 12 min 4 sec) 
 Total Blocks : 262144 Invalid Blocks : 0
Heartbeat CPU 3 instructions: 260000001 cycles: 577332671 heartbeat IPC: 0.123615 cumulative IPC: 0.120661 (Simulation time: 105 hr 26 min 16 sec) 
 Total Blocks : 262144 Invalid Blocks : 0
Heartbeat CPU 0 instructions: 270000001 cycles: 652112565 heartbeat IPC: 0.125324 cumulative IPC: 0.122374 (Simulation time: 112 hr 22 min 36 sec) 
 Total Blocks : 262144 Invalid Blocks : 0
Heartbeat CPU 6 instructions: 270000001 cycles: 652510638 heartbeat IPC: 0.125551 cumulative IPC: 0.122274 (Simulation time: 112 hr 24 min 50 sec) 
 Total Blocks : 262144 Invalid Blocks : 0
Heartbeat CPU 4 instructions: 270000001 cycles: 653191733 heartbeat IPC: 0.125274 cumulative IPC: 0.122139 (Simulation time: 112 hr 28 min 47 sec) 
 Total Blocks : 262144 Invalid Blocks : 0
Heartbeat CPU 2 instructions: 270000001 cycles: 653762805 heartbeat IPC: 0.125085 cumulative IPC: 0.122018 (Simulation time: 112 hr 32 min 4 sec) 
 Total Blocks : 262144 Invalid Blocks : 0
Heartbeat CPU 7 instructions: 270000001 cycles: 654129131 heartbeat IPC: 0.124252 cumulative IPC: 0.121934 (Simulation time: 112 hr 34 min 3 sec) 
 Total Blocks : 262144 Invalid Blocks : 0
Heartbeat CPU 5 instructions: 270000001 cycles: 654184761 heartbeat IPC: 0.125423 cumulative IPC: 0.12192 (Simulation time: 112 hr 34 min 23 sec) 
 Total Blocks : 262144 Invalid Blocks : 0
Heartbeat CPU 1 instructions: 270000001 cycles: 654397185 heartbeat IPC: 0.125499 cumulative IPC: 0.121886 (Simulation time: 112 hr 35 min 36 sec) 
 Total Blocks : 262144 Invalid Blocks : 0
Heartbeat CPU 3 instructions: 270000001 cycles: 657210984 heartbeat IPC: 0.12519 cumulative IPC: 0.121288 (Simulation time: 112 hr 51 min 28 sec) 
 Total Blocks : 262144 Invalid Blocks : 0
Heartbeat CPU 0 instructions: 280000001 cycles: 731444261 heartbeat IPC: 0.126053 cumulative IPC: 0.122822 (Simulation time: 119 hr 59 min 50 sec) 
 Total Blocks : 262144 Invalid Blocks : 0
Heartbeat CPU 6 instructions: 280000001 cycles: 731457105 heartbeat IPC: 0.126668 cumulative IPC: 0.122807 (Simulation time: 119 hr 59 min 53 sec) 
 Total Blocks : 262144 Invalid Blocks : 0
Heartbeat CPU 4 instructions: 280000001 cycles: 732165934 heartbeat IPC: 0.126624 cumulative IPC: 0.122682 (Simulation time: 120 hr 3 min 58 sec) 
 Total Blocks : 262144 Invalid Blocks : 0
Heartbeat CPU 5 instructions: 280000001 cycles: 733156214 heartbeat IPC: 0.126628 cumulative IPC: 0.12249 (Simulation time: 120 hr 9 min 45 sec) 
 Total Blocks : 262144 Invalid Blocks : 0
Heartbeat CPU 2 instructions: 280000001 cycles: 733447852 heartbeat IPC: 0.125494 cumulative IPC: 0.122442 (Simulation time: 120 hr 11 min 22 sec) 
 Total Blocks : 262144 Invalid Blocks : 0
Heartbeat CPU 7 instructions: 280000001 cycles: 734192028 heartbeat IPC: 0.124902 cumulative IPC: 0.122297 (Simulation time: 120 hr 15 min 36 sec) 
 Total Blocks : 262144 Invalid Blocks : 0
Heartbeat CPU 1 instructions: 280000001 cycles: 734252768 heartbeat IPC: 0.125226 cumulative IPC: 0.122293 (Simulation time: 120 hr 15 min 56 sec) 
 Total Blocks : 262144 Invalid Blocks : 0
Heartbeat CPU 3 instructions: 280000001 cycles: 736379376 heartbeat IPC: 0.126313 cumulative IPC: 0.121894 (Simulation time: 120 hr 28 min 17 sec) 
 Total Blocks : 262144 Invalid Blocks : 0
Heartbeat CPU 6 instructions: 290000001 cycles: 812445293 heartbeat IPC: 0.123475 cumulative IPC: 0.122881 (Simulation time: 128 hr 1 min 5 sec) 
 Total Blocks : 262144 Invalid Blocks : 0
Heartbeat CPU 0 instructions: 290000001 cycles: 812735158 heartbeat IPC: 0.123015 cumulative IPC: 0.122843 (Simulation time: 128 hr 2 min 45 sec) 
 Total Blocks : 262144 Invalid Blocks : 0
Heartbeat CPU 4 instructions: 290000001 cycles: 812776559 heartbeat IPC: 0.124053 cumulative IPC: 0.122833 (Simulation time: 128 hr 3 min 0 sec) 
 Total Blocks : 262144 Invalid Blocks : 0
Heartbeat CPU 5 instructions: 290000001 cycles: 813886728 heartbeat IPC: 0.123869 cumulative IPC: 0.122641 (Simulation time: 128 hr 9 min 41 sec) 
 Total Blocks : 262144 Invalid Blocks : 0
Heartbeat CPU 2 instructions: 290000001 cycles: 814945345 heartbeat IPC: 0.122703 cumulative IPC: 0.122471 (Simulation time: 128 hr 16 min 8 sec) 
 Total Blocks : 262144 Invalid Blocks : 0
Heartbeat CPU 1 instructions: 290000001 cycles: 815551002 heartbeat IPC: 0.123004 cumulative IPC: 0.122372 (Simulation time: 128 hr 19 min 46 sec) 
 Total Blocks : 262144 Invalid Blocks : 0
Heartbeat CPU 7 instructions: 290000001 cycles: 815630246 heartbeat IPC: 0.122792 cumulative IPC: 0.122352 (Simulation time: 128 hr 20 min 15 sec) 
 Total Blocks : 262144 Invalid Blocks : 0
Heartbeat CPU 3 instructions: 290000001 cycles: 817617769 heartbeat IPC: 0.123095 cumulative IPC: 0.122027 (Simulation time: 128 hr 32 min 24 sec) 
 Total Blocks : 262144 Invalid Blocks : 0
Heartbeat CPU 6 instructions: 300000002 cycles: 894303466 heartbeat IPC: 0.122163 cumulative IPC: 0.122808 (Simulation time: 136 hr 18 min 58 sec) 
 Total Blocks : 262144 Invalid Blocks : 0
Heartbeat CPU 4 instructions: 300000003 cycles: 894468679 heartbeat IPC: 0.122411 cumulative IPC: 0.122791 (Simulation time: 136 hr 20 min 0 sec) 
 Total Blocks : 262144 Invalid Blocks : 0
Heartbeat CPU 0 instructions: 300000003 cycles: 894526190 heartbeat IPC: 0.122263 cumulative IPC: 0.122785 (Simulation time: 136 hr 20 min 21 sec) 
 Total Blocks : 262144 Invalid Blocks : 0
Heartbeat CPU 5 instructions: 300000002 cycles: 895470373 heartbeat IPC: 0.122574 cumulative IPC: 0.122635 (Simulation time: 136 hr 26 min 6 sec) 
 Total Blocks : 262144 Invalid Blocks : 0
Heartbeat CPU 2 instructions: 300000001 cycles: 896435885 heartbeat IPC: 0.122714 cumulative IPC: 0.122495 (Simulation time: 136 hr 32 min 3 sec) 
 Total Blocks : 262144 Invalid Blocks : 0
Heartbeat CPU 1 instructions: 300000002 cycles: 897093409 heartbeat IPC: 0.122636 cumulative IPC: 0.122398 (Simulation time: 136 hr 36 min 6 sec) 
 Total Blocks : 262144 Invalid Blocks : 0
Heartbeat CPU 7 instructions: 300000001 cycles: 898245636 heartbeat IPC: 0.121043 cumulative IPC: 0.12222 (Simulation time: 136 hr 43 min 21 sec) 
 Total Blocks : 262144 Invalid Blocks : 0
Heartbeat CPU 3 instructions: 300000002 cycles: 899198093 heartbeat IPC: 0.122579 cumulative IPC: 0.122082 (Simulation time: 136 hr 49 min 4 sec) 
 Total Blocks : 262144 Invalid Blocks : 0
Heartbeat CPU 4 instructions: 310000000 cycles: 975653821 heartbeat IPC: 0.123175 cumulative IPC: 0.122826 (Simulation time: 144 hr 43 min 29 sec) 
 Total Blocks : 262144 Invalid Blocks : 0
Heartbeat CPU 0 instructions: 310000000 cycles: 975996593 heartbeat IPC: 0.122744 cumulative IPC: 0.122781 (Simulation time: 144 hr 45 min 39 sec) 
 Total Blocks : 262144 Invalid Blocks : 0
Heartbeat CPU 6 instructions: 310000000 cycles: 976402163 heartbeat IPC: 0.121805 cumulative IPC: 0.122716 (Simulation time: 144 hr 48 min 13 sec) 
 Total Blocks : 262144 Invalid Blocks : 0
Heartbeat CPU 5 instructions: 310000000 cycles: 976672396 heartbeat IPC: 0.12315 cumulative IPC: 0.122681 (Simulation time: 144 hr 49 min 52 sec) 
 Total Blocks : 262144 Invalid Blocks : 0
Heartbeat CPU 2 instructions: 310000000 cycles: 977670347 heartbeat IPC: 0.1231 cumulative IPC: 0.12255 (Simulation time: 144 hr 56 min 14 sec) 
 Total Blocks : 262144 Invalid Blocks : 0
Heartbeat CPU 1 instructions: 310000000 cycles: 978705057 heartbeat IPC: 0.122532 cumulative IPC: 0.12241 (Simulation time: 145 hr 2 min 39 sec) 
 Total Blocks : 262144 Invalid Blocks : 0
Heartbeat CPU 7 instructions: 310000000 cycles: 980231336 heartbeat IPC: 0.121972 cumulative IPC: 0.122197 (Simulation time: 145 hr 12 min 19 sec) 
 Total Blocks : 262144 Invalid Blocks : 0
Heartbeat CPU 3 instructions: 310000000 cycles: 981319263 heartbeat IPC: 0.121771 cumulative IPC: 0.122053 (Simulation time: 145 hr 18 min 59 sec) 
 Total Blocks : 262144 Invalid Blocks : 0
Heartbeat CPU 4 instructions: 320000001 cycles: 1056937381 heartbeat IPC: 0.123026 cumulative IPC: 0.122842 (Simulation time: 153 hr 20 min 59 sec) 
 Total Blocks : 262144 Invalid Blocks : 0
Heartbeat CPU 6 instructions: 320000002 cycles: 1057523830 heartbeat IPC: 0.123272 cumulative IPC: 0.122762 (Simulation time: 153 hr 24 min 48 sec) 
 Total Blocks : 262144 Invalid Blocks : 0
Heartbeat CPU 0 instructions: 320000001 cycles: 1057610674 heartbeat IPC: 0.122528 cumulative IPC: 0.12276 (Simulation time: 153 hr 25 min 21 sec) 
 Total Blocks : 262144 Invalid Blocks : 0
Heartbeat CPU 5 instructions: 320000001 cycles: 1058369453 heartbeat IPC: 0.122403 cumulative IPC: 0.122658 (Simulation time: 153 hr 30 min 20 sec) 
 Total Blocks : 262144 Invalid Blocks : 0
Heartbeat CPU 2 instructions: 320000001 cycles: 1058805155 heartbeat IPC: 0.123252 cumulative IPC: 0.122608 (Simulation time: 153 hr 33 min 7 sec) 
 Total Blocks : 262144 Invalid Blocks : 0
Heartbeat CPU 1 instructions: 320000002 cycles: 1059841735 heartbeat IPC: 0.123249 cumulative IPC: 0.12248 (Simulation time: 153 hr 39 min 45 sec) 
 Total Blocks : 262144 Invalid Blocks : 0
Heartbeat CPU 7 instructions: 320000001 cycles: 1061413954 heartbeat IPC: 0.123179 cumulative IPC: 0.122279 (Simulation time: 153 hr 50 min 5 sec) 
 Total Blocks : 262144 Invalid Blocks : 0
Heartbeat CPU 3 instructions: 320000002 cycles: 1062335277 heartbeat IPC: 0.123432 cumulative IPC: 0.122167 (Simulation time: 153 hr 56 min 7 sec) 
 Total Blocks : 262144 Invalid Blocks : 0
Heartbeat CPU 4 instructions: 330000000 cycles: 1137867549 heartbeat IPC: 0.123563 cumulative IPC: 0.122897 (Simulation time: 162 hr 9 min 59 sec) 
 Total Blocks : 262144 Invalid Blocks : 0
Heartbeat CPU 6 instructions: 330000000 cycles: 1138166296 heartbeat IPC: 0.124004 cumulative IPC: 0.122857 (Simulation time: 162 hr 11 min 58 sec) 
 Total Blocks : 262144 Invalid Blocks : 0
Heartbeat CPU 0 instructions: 330000000 cycles: 1138800658 heartbeat IPC: 0.123168 cumulative IPC: 0.122791 (Simulation time: 162 hr 16 min 2 sec) 
 Total Blocks : 262144 Invalid Blocks : 0
Heartbeat CPU 2 instructions: 330000000 cycles: 1139632959 heartbeat IPC: 0.12372 cumulative IPC: 0.122693 (Simulation time: 162 hr 21 min 22 sec) 
 Total Blocks : 262144 Invalid Blocks : 0
Heartbeat CPU 5 instructions: 330000000 cycles: 1139738655 heartbeat IPC: 0.122897 cumulative IPC: 0.122676 (Simulation time: 162 hr 22 min 0 sec) 
 Total Blocks : 262144 Invalid Blocks : 0
Heartbeat CPU 1 instructions: 330000000 cycles: 1140215317 heartbeat IPC: 0.124419 cumulative IPC: 0.122627 (Simulation time: 162 hr 25 min 5 sec) 
 Total Blocks : 262144 Invalid Blocks : 0
Heartbeat CPU 7 instructions: 330000000 cycles: 1141792297 heartbeat IPC: 0.124412 cumulative IPC: 0.12244 (Simulation time: 162 hr 35 min 17 sec) 
 Total Blocks : 262144 Invalid Blocks : 0
Heartbeat CPU 3 instructions: 330000000 cycles: 1142574577 heartbeat IPC: 0.124627 cumulative IPC: 0.122353 (Simulation time: 162 hr 40 min 29 sec) 
 Total Blocks : 262144 Invalid Blocks : 0
Heartbeat CPU 4 instructions: 340000001 cycles: 1217464609 heartbeat IPC: 0.125633 cumulative IPC: 0.123089 (Simulation time: 171 hr 2 min 16 sec) 
 Total Blocks : 262144 Invalid Blocks : 0
Heartbeat CPU 6 instructions: 340000001 cycles: 1217823237 heartbeat IPC: 0.125538 cumulative IPC: 0.123045 (Simulation time: 171 hr 4 min 41 sec) 
 Total Blocks : 262144 Invalid Blocks : 0
Heartbeat CPU 5 instructions: 340000001 cycles: 1218926610 heartbeat IPC: 0.126282 cumulative IPC: 0.122927 (Simulation time: 171 hr 12 min 8 sec) 
 Total Blocks : 262144 Invalid Blocks : 0
Heartbeat CPU 0 instructions: 340000001 cycles: 1218966492 heartbeat IPC: 0.124741 cumulative IPC: 0.122929 (Simulation time: 171 hr 12 min 25 sec) 
 Total Blocks : 262144 Invalid Blocks : 0
Heartbeat CPU 2 instructions: 340000001 cycles: 1219116179 heartbeat IPC: 0.125813 cumulative IPC: 0.122911 (Simulation time: 171 hr 13 min 27 sec) 
 Total Blocks : 262144 Invalid Blocks : 0
Heartbeat CPU 1 instructions: 340000001 cycles: 1219568707 heartbeat IPC: 0.126019 cumulative IPC: 0.122863 (Simulation time: 171 hr 16 min 32 sec) 
 Total Blocks : 262144 Invalid Blocks : 0
Heartbeat CPU 7 instructions: 340000001 cycles: 1221097246 heartbeat IPC: 0.126096 cumulative IPC: 0.122694 (Simulation time: 171 hr 26 min 52 sec) 
 Total Blocks : 262144 Invalid Blocks : 0
Heartbeat CPU 3 instructions: 340000001 cycles: 1222105858 heartbeat IPC: 0.125737 cumulative IPC: 0.122588 (Simulation time: 171 hr 33 min 43 sec) 
 Total Blocks : 262144 Invalid Blocks : 0
Heartbeat CPU 4 instructions: 350000001 cycles: 1296288183 heartbeat IPC: 0.126866 cumulative IPC: 0.123334 (Simulation time: 180 hr 0 min 53 sec) 
 Total Blocks : 262144 Invalid Blocks : 0
Heartbeat CPU 6 instructions: 350000000 cycles: 1296564451 heartbeat IPC: 0.126998 cumulative IPC: 0.123301 (Simulation time: 180 hr 2 min 47 sec) 
 Total Blocks : 262144 Invalid Blocks : 0
Heartbeat CPU 5 instructions: 350000001 cycles: 1297109856 heartbeat IPC: 0.127905 cumulative IPC: 0.123247 (Simulation time: 180 hr 6 min 34 sec) 
 Total Blocks : 262144 Invalid Blocks : 0
Heartbeat CPU 2 instructions: 350000001 cycles: 1297457468 heartbeat IPC: 0.127647 cumulative IPC: 0.123215 (Simulation time: 180 hr 8 min 54 sec) 
 Total Blocks : 262144 Invalid Blocks : 0
Heartbeat CPU 1 instructions: 350000001 cycles: 1298046633 heartbeat IPC: 0.127424 cumulative IPC: 0.123157 (Simulation time: 180 hr 13 min 3 sec) 
 Total Blocks : 262144 Invalid Blocks : 0
Heartbeat CPU 0 instructions: 350000000 cycles: 1298048151 heartbeat IPC: 0.126452 cumulative IPC: 0.123157 (Simulation time: 180 hr 13 min 5 sec) 
 Total Blocks : 262144 Invalid Blocks : 0
Heartbeat CPU 7 instructions: 350000001 cycles: 1299821249 heartbeat IPC: 0.127026 cumulative IPC: 0.122974 (Simulation time: 180 hr 25 min 30 sec) 
 Total Blocks : 262144 Invalid Blocks : 0
Heartbeat CPU 3 instructions: 350000001 cycles: 1300294237 heartbeat IPC: 0.127896 cumulative IPC: 0.122929 (Simulation time: 180 hr 28 min 52 sec) 
 Total Blocks : 262144 Invalid Blocks : 0
Heartbeat CPU 4 instructions: 360000001 cycles: 1377289842 heartbeat IPC: 0.123454 cumulative IPC: 0.123341 (Simulation time: 189 hr 29 min 32 sec) 
 Total Blocks : 262144 Invalid Blocks : 0
Heartbeat CPU 6 instructions: 360000001 cycles: 1377380571 heartbeat IPC: 0.123738 cumulative IPC: 0.123328 (Simulation time: 189 hr 30 min 10 sec) 
 Total Blocks : 262144 Invalid Blocks : 0
Heartbeat CPU 5 instructions: 360000001 cycles: 1377750995 heartbeat IPC: 0.124006 cumulative IPC: 0.123294 (Simulation time: 189 hr 32 min 57 sec) 
 Total Blocks : 262144 Invalid Blocks : 0
Heartbeat CPU 2 instructions: 360000001 cycles: 1377971623 heartbeat IPC: 0.124202 cumulative IPC: 0.123277 (Simulation time: 189 hr 34 min 31 sec) 
 Total Blocks : 262144 Invalid Blocks : 0
Heartbeat CPU 1 instructions: 360000001 cycles: 1379336466 heartbeat IPC: 0.123017 cumulative IPC: 0.123148 (Simulation time: 189 hr 44 min 17 sec) 
 Total Blocks : 262144 Invalid Blocks : 0
Heartbeat CPU 0 instructions: 360000001 cycles: 1379392418 heartbeat IPC: 0.122934 cumulative IPC: 0.123143 (Simulation time: 189 hr 44 min 38 sec) 
 Total Blocks : 262144 Invalid Blocks : 0
Heartbeat CPU 3 instructions: 360000001 cycles: 1381003605 heartbeat IPC: 0.123901 cumulative IPC: 0.122989 (Simulation time: 189 hr 55 min 58 sec) 
 Total Blocks : 262144 Invalid Blocks : 0
Heartbeat CPU 7 instructions: 360000001 cycles: 1381183250 heartbeat IPC: 0.122907 cumulative IPC: 0.12297 (Simulation time: 189 hr 57 min 12 sec) 
 Total Blocks : 262144 Invalid Blocks : 0
Heartbeat CPU 6 instructions: 370000001 cycles: 1455891738 heartbeat IPC: 0.12737 cumulative IPC: 0.123559 (Simulation time: 198 hr 52 min 47 sec) 
 Total Blocks : 262144 Invalid Blocks : 0
Heartbeat CPU 4 instructions: 370000001 cycles: 1456422442 heartbeat IPC: 0.12637 cumulative IPC: 0.123515 (Simulation time: 198 hr 56 min 40 sec) 
 Total Blocks : 262144 Invalid Blocks : 0
Heartbeat CPU 5 instructions: 370000001 cycles: 1456624223 heartbeat IPC: 0.126786 cumulative IPC: 0.123494 (Simulation time: 198 hr 58 min 6 sec) 
 Total Blocks : 262144 Invalid Blocks : 0
Heartbeat CPU 2 instructions: 370000001 cycles: 1456815878 heartbeat IPC: 0.126832 cumulative IPC: 0.12348 (Simulation time: 198 hr 59 min 30 sec) 
 Total Blocks : 262144 Invalid Blocks : 0
Heartbeat CPU 0 instructions: 370000001 cycles: 1458027122 heartbeat IPC: 0.12717 cumulative IPC: 0.123373 (Simulation time: 199 hr 8 min 9 sec) 
 Total Blocks : 262144 Invalid Blocks : 0
Heartbeat CPU 1 instructions: 370000001 cycles: 1458383631 heartbeat IPC: 0.126507 cumulative IPC: 0.123341 (Simulation time: 199 hr 10 min 46 sec) 
 Total Blocks : 262144 Invalid Blocks : 0
Heartbeat CPU 3 instructions: 370000001 cycles: 1459651586 heartbeat IPC: 0.127149 cumulative IPC: 0.123226 (Simulation time: 199 hr 19 min 54 sec) 
 Total Blocks : 262144 Invalid Blocks : 0
Heartbeat CPU 7 instructions: 370000001 cycles: 1459981030 heartbeat IPC: 0.126907 cumulative IPC: 0.123194 (Simulation time: 199 hr 22 min 17 sec) 
 Total Blocks : 262144 Invalid Blocks : 0
Heartbeat CPU 6 instructions: 380000003 cycles: 1535113532 heartbeat IPC: 0.126228 cumulative IPC: 0.123704 (Simulation time: 208 hr 32 min 30 sec) 
 Total Blocks : 262144 Invalid Blocks : 0
Heartbeat CPU 5 instructions: 380000003 cycles: 1535855877 heartbeat IPC: 0.126212 cumulative IPC: 0.123642 (Simulation time: 208 hr 38 min 4 sec) 
 Total Blocks : 262144 Invalid Blocks : 0
Heartbeat CPU 2 instructions: 380000001 cycles: 1535977803 heartbeat IPC: 0.126323 cumulative IPC: 0.123635 (Simulation time: 208 hr 38 min 55 sec) 
 Total Blocks : 262144 Invalid Blocks : 0
Heartbeat CPU 4 instructions: 380000003 cycles: 1536318832 heartbeat IPC: 0.125162 cumulative IPC: 0.123606 (Simulation time: 208 hr 41 min 28 sec) 
 Total Blocks : 262144 Invalid Blocks : 0
Heartbeat CPU 0 instructions: 380000001 cycles: 1537070404 heartbeat IPC: 0.126513 cumulative IPC: 0.123544 (Simulation time: 208 hr 47 min 8 sec) 
 Total Blocks : 262144 Invalid Blocks : 0
Heartbeat CPU 1 instructions: 380000001 cycles: 1538084480 heartbeat IPC: 0.125469 cumulative IPC: 0.123457 (Simulation time: 208 hr 54 min 34 sec) 
 Total Blocks : 262144 Invalid Blocks : 0
Heartbeat CPU 3 instructions: 380000003 cycles: 1538713796 heartbeat IPC: 0.126483 cumulative IPC: 0.123403 (Simulation time: 208 hr 59 min 14 sec) 
 Total Blocks : 262144 Invalid Blocks : 0
Heartbeat CPU 7 instructions: 380000001 cycles: 1539406851 heartbeat IPC: 0.125904 cumulative IPC: 0.123342 (Simulation time: 209 hr 4 min 18 sec) 
 Total Blocks : 262144 Invalid Blocks : 0
Heartbeat CPU 6 instructions: 390000000 cycles: 1614455991 heartbeat IPC: 0.126036 cumulative IPC: 0.123825 (Simulation time: 218 hr 26 min 12 sec) 
 Total Blocks : 262144 Invalid Blocks : 0
Heartbeat CPU 5 instructions: 390000000 cycles: 1615156480 heartbeat IPC: 0.126102 cumulative IPC: 0.123769 (Simulation time: 218 hr 31 min 26 sec) 
 Total Blocks : 262144 Invalid Blocks : 0
Heartbeat CPU 2 instructions: 390000000 cycles: 1615672656 heartbeat IPC: 0.125479 cumulative IPC: 0.12373 (Simulation time: 218 hr 35 min 26 sec) 
 Total Blocks : 262144 Invalid Blocks : 0
Heartbeat CPU 4 instructions: 390000000 cycles: 1616387923 heartbeat IPC: 0.124892 cumulative IPC: 0.123673 (Simulation time: 218 hr 40 min 45 sec) 
 Total Blocks : 262144 Invalid Blocks : 0
Heartbeat CPU 0 instructions: 390000000 cycles: 1616580686 heartbeat IPC: 0.12577 cumulative IPC: 0.123659 (Simulation time: 218 hr 42 min 9 sec) 
 Total Blocks : 262144 Invalid Blocks : 0
Heartbeat CPU 1 instructions: 390000000 cycles: 1618568054 heartbeat IPC: 0.124249 cumulative IPC: 0.123499 (Simulation time: 218 hr 56 min 45 sec) 
 Total Blocks : 262144 Invalid Blocks : 0
Heartbeat CPU 3 instructions: 390000000 cycles: 1618693278 heartbeat IPC: 0.125032 cumulative IPC: 0.123487 (Simulation time: 218 hr 57 min 41 sec) 
 Total Blocks : 262144 Invalid Blocks : 0
Heartbeat CPU 7 instructions: 390000000 cycles: 1619402779 heartbeat IPC: 0.125006 cumulative IPC: 0.123428 (Simulation time: 219 hr 2 min 52 sec) 
 Total Blocks : 262144 Invalid Blocks : 0
Heartbeat CPU 6 instructions: 400000001 cycles: 1692592575 heartbeat IPC: 0.127981 cumulative IPC: 0.124026 (Simulation time: 228 hr 18 min 20 sec) 
 Total Blocks : 262144 Invalid Blocks : 0
Finished CPU 6 instructions: 200000002 cycles: 1612557677 cumulative IPC: 0.124027 (Simulation time: 228 hr 18 min 53 sec) 
Heartbeat CPU 5 instructions: 400000000 cycles: 1693116598 heartbeat IPC: 0.128271 cumulative IPC: 0.123987 (Simulation time: 228 hr 22 min 29 sec) 
 Total Blocks : 262144 Invalid Blocks : 0
Finished CPU 5 instructions: 200000000 cycles: 1613085581 cumulative IPC: 0.123986 (Simulation time: 228 hr 22 min 52 sec) 
Heartbeat CPU 2 instructions: 400000000 cycles: 1693661159 heartbeat IPC: 0.128224 cumulative IPC: 0.123948 (Simulation time: 228 hr 26 min 35 sec) 
 Total Blocks : 262144 Invalid Blocks : 0
Finished CPU 2 instructions: 200000001 cycles: 1613584483 cumulative IPC: 0.123948 (Simulation time: 228 hr 26 min 46 sec) 
Heartbeat CPU 0 instructions: 400000000 cycles: 1694851413 heartbeat IPC: 0.127762 cumulative IPC: 0.123858 (Simulation time: 228 hr 35 min 54 sec) 
 Total Blocks : 262144 Invalid Blocks : 0
Finished CPU 0 instructions: 200000002 cycles: 1614756758 cumulative IPC: 0.123858 (Simulation time: 228 hr 35 min 54 sec) 
Heartbeat CPU 4 instructions: 400000001 cycles: 1695251776 heartbeat IPC: 0.126801 cumulative IPC: 0.123825 (Simulation time: 228 hr 39 min 3 sec) 
 Total Blocks : 262144 Invalid Blocks : 0
Finished CPU 4 instructions: 200000001 cycles: 1615185066 cumulative IPC: 0.123825 (Simulation time: 228 hr 39 min 14 sec) 
Heartbeat CPU 3 instructions: 400000001 cycles: 1696834376 heartbeat IPC: 0.127974 cumulative IPC: 0.123704 (Simulation time: 228 hr 51 min 5 sec) 
 Total Blocks : 262144 Invalid Blocks : 0
Finished CPU 3 instructions: 200000003 cycles: 1616766402 cumulative IPC: 0.123704 (Simulation time: 228 hr 51 min 15 sec) 
Heartbeat CPU 1 instructions: 400000001 cycles: 1697219879 heartbeat IPC: 0.127143 cumulative IPC: 0.123676 (Simulation time: 228 hr 53 min 59 sec) 
 Total Blocks : 262144 Invalid Blocks : 0
Finished CPU 1 instructions: 200000000 cycles: 1617126503 cumulative IPC: 0.123676 (Simulation time: 228 hr 54 min 0 sec) 
Heartbeat CPU 7 instructions: 400000000 cycles: 1698010945 heartbeat IPC: 0.127213 cumulative IPC: 0.123612 (Simulation time: 229 hr 0 min 6 sec) 
 Total Blocks : 262144 Invalid Blocks : 0
Finished CPU 7 instructions: 200000000 cycles: 1617978251 cumulative IPC: 0.123611 (Simulation time: 229 hr 0 min 38 sec) 

CPU 0 Branch Prediction Accuracy: 94.9852% MPKI: 0.896679 Average ROB Occupancy at Mispredict: 273.063

CPU 1 Branch Prediction Accuracy: 94.9848% MPKI: 0.89688 Average ROB Occupancy at Mispredict: 273.076

CPU 2 Branch Prediction Accuracy: 94.9854% MPKI: 0.896646 Average ROB Occupancy at Mispredict: 273.082

CPU 3 Branch Prediction Accuracy: 94.9846% MPKI: 0.89689 Average ROB Occupancy at Mispredict: 273.096

CPU 4 Branch Prediction Accuracy: 94.9851% MPKI: 0.896687 Average ROB Occupancy at Mispredict: 273.096

CPU 5 Branch Prediction Accuracy: 94.9854% MPKI: 0.896665 Average ROB Occupancy at Mispredict: 273.093

CPU 6 Branch Prediction Accuracy: 94.9856% MPKI: 0.896655 Average ROB Occupancy at Mispredict: 273.092

CPU 7 Branch Prediction Accuracy: 94.9845% MPKI: 0.896904 Average ROB Occupancy at Mispredict: 273.088

ChampSim completed all CPUs

Total Simulation Statistics (not including warmup)

CPU 0 cumulative IPC: 0.123881 instructions: 200436255 cycles: 1617978250
ITLB TOTAL     ACCESS: 30764503  HIT: 30764503  MISS:     0  HIT %:   100  MISS %:     0  AVERAGE MISS PENALTY: 0
ITLB LOAD      ACCESS: 30764503  HIT: 30764503  MISS:     0  HIT %:   100  MISS %:     0  AVERAGE MISS PENALTY: 0
ITLB RFO       ACCESS:     0  HIT:     0  MISS:     0  HIT %:     0  MISS %:     0  AVERAGE MISS PENALTY: 0
ITLB PREFETCH  ACCESS:     0  HIT:     0  MISS:     0  HIT %:     0  MISS %:     0  AVERAGE MISS PENALTY: 0
ITLB WRITEBACK ACCESS:     0  HIT:     0  MISS:     0  HIT %:     0  MISS %:     0  AVERAGE MISS PENALTY: 0

DTLB TOTAL     ACCESS: 40332628  HIT: 40059460  MISS: 273168  HIT %: 99.3227  MISS %: 0.677288  AVERAGE MISS PENALTY: 87.2488
DTLB LOAD      ACCESS: 19509771  HIT: 19472702  MISS: 37069  HIT %: 99.81  MISS %: 0.190002  AVERAGE MISS PENALTY: 109.002
DTLB RFO       ACCESS: 20822857  HIT: 20586758  MISS: 236099  HIT %: 98.8662  MISS %: 1.13385  AVERAGE MISS PENALTY: 83.8334
DTLB PREFETCH  ACCESS:     0  HIT:     0  MISS:     0  HIT %:     0  MISS %:     0  AVERAGE MISS PENALTY: 0
DTLB WRITEBACK ACCESS:     0  HIT:     0  MISS:     0  HIT %:     0  MISS %:     0  AVERAGE MISS PENALTY: 0

STLB TOTAL     ACCESS: 273168  HIT: 124944  MISS: 148224  HIT %: 45.7389  MISS %: 54.2611  AVERAGE MISS PENALTY: 100
STLB LOAD      ACCESS: 37069  HIT:     1  MISS: 37068  HIT %: 0.00269767  MISS %: 99.9973  AVERAGE MISS PENALTY: 100
STLB RFO       ACCESS: 236099  HIT: 124943  MISS: 111156  HIT %: 52.9197  MISS %: 47.0803  AVERAGE MISS PENALTY: 100
STLB PREFETCH  ACCESS:     0  HIT:     0  MISS:     0  HIT %:     0  MISS %:     0  AVERAGE MISS PENALTY: 0
STLB WRITEBACK ACCESS:     0  HIT:     0  MISS:     0  HIT %:     0  MISS %:     0  AVERAGE MISS PENALTY: 0

L1D TOTAL     ACCESS: 58605380  HIT: 42945784  MISS: 15659596  HIT %: 73.2796  MISS %: 26.7204  AVERAGE MISS PENALTY: 3.35683e+07
L1D LOAD      ACCESS: 16502945  HIT: 14952149  MISS: 1550796  HIT %: 90.6029  MISS %: 9.39709  AVERAGE MISS PENALTY: 3.38952e+08
L1D RFO       ACCESS: 34674591  HIT: 21397513  MISS: 13277078  HIT %: 61.7095  MISS %: 38.2905  AVERAGE MISS PENALTY: 1480.56
L1D PREFETCH  ACCESS: 7427844  HIT: 6596122  MISS: 831722  HIT %: 88.8026  MISS %: 11.1974  AVERAGE MISS PENALTY: 1165.08
L1D WRITEBACK ACCESS:     0  HIT:     0  MISS:     0  HIT %:     0  MISS %:     0  AVERAGE MISS PENALTY: 0

L1I TOTAL     ACCESS: 42446097  HIT: 42446097  MISS:     0  HIT %:   100  MISS %:     0  AVERAGE MISS PENALTY: 0
L1I LOAD      ACCESS: 42446097  HIT: 42446097  MISS:     0  HIT %:   100  MISS %:     0  AVERAGE MISS PENALTY: 0
L1I RFO       ACCESS:     0  HIT:     0  MISS:     0  HIT %:     0  MISS %:     0  AVERAGE MISS PENALTY: 0
L1I PREFETCH  ACCESS:     0  HIT:     0  MISS:     0  HIT %:     0  MISS %:     0  AVERAGE MISS PENALTY: 0
L1I WRITEBACK ACCESS:     0  HIT:     0  MISS:     0  HIT %:     0  MISS %:     0  AVERAGE MISS PENALTY: 0

L2C TOTAL     ACCESS: 29747478  HIT: 19357476  MISS: 10390002  HIT %: 65.0727  MISS %: 34.9273  AVERAGE MISS PENALTY: 8.53049e+07
L2C LOAD      ACCESS: 1542519  HIT: 269120  MISS: 1273399  HIT %: 17.4468  MISS %: 82.5532  AVERAGE MISS PENALTY: 6.96009e+08
L2C RFO       ACCESS: 13277075  HIT: 5260634  MISS: 8016441  HIT %: 39.6219  MISS %: 60.3781  AVERAGE MISS PENALTY: 2297.96
L2C PREFETCH  ACCESS: 1650797  HIT: 551792  MISS: 1099005  HIT %: 33.4258  MISS %: 66.5742  AVERAGE MISS PENALTY: 1824.08
L2C WRITEBACK ACCESS: 13277087  HIT: 13275930  MISS:  1157  HIT %: 99.9913  MISS %: 0.00871426  AVERAGE MISS PENALTY: 0


LLC0 TOTAL     ACCESS: 2300050  HIT: 881249  MISS: 1418801  HIT %: 38.3143  MISS %: 61.6857  AVERAGE MISS PENALTY: 2012.85
LLC0 LOAD      ACCESS: 65456  HIT:     0  MISS: 65456  HIT %:     0  MISS %:   100  AVERAGE MISS PENALTY: 2122.63
LLC0 RFO       ACCESS: 1001763  HIT: 109480  MISS: 892283  HIT %: 10.9287  MISS %: 89.0713  AVERAGE MISS PENALTY: 2472.52
LLC0 PREFETCH  ACCESS: 230896  HIT:     0  MISS: 230896  HIT %:     0  MISS %:   100  AVERAGE MISS PENALTY: 2211.86
LLC0 WRITEBACK ACCESS: 1001935  HIT: 771769  MISS: 230166  HIT %: 77.0279  MISS %: 22.9721  AVERAGE MISS PENALTY: 0

LLC1 TOTAL     ACCESS: 2300026  HIT: 881178  MISS: 1418848  HIT %: 38.3117  MISS %: 61.6883  AVERAGE MISS PENALTY: 2020.73
LLC1 LOAD      ACCESS: 50665  HIT:    20  MISS: 50645  HIT %: 0.039475  MISS %: 99.9605  AVERAGE MISS PENALTY: 2118.75
LLC1 RFO       ACCESS: 1001679  HIT: 109335  MISS: 892344  HIT %: 10.9152  MISS %: 89.0848  AVERAGE MISS PENALTY: 2480.32
LLC1 PREFETCH  ACCESS: 245786  HIT:     0  MISS: 245786  HIT %:     0  MISS %:   100  AVERAGE MISS PENALTY: 2223.51
LLC1 WRITEBACK ACCESS: 1001896  HIT: 771823  MISS: 230073  HIT %: 77.0362  MISS %: 22.9638  AVERAGE MISS PENALTY: 0

LLC2 TOTAL     ACCESS: 2299646  HIT: 879684  MISS: 1419962  HIT %: 38.253  MISS %: 61.747  AVERAGE MISS PENALTY: 1988.37
LLC2 LOAD      ACCESS: 40955  HIT:    26  MISS: 40929  HIT %: 0.0634843  MISS %: 99.9365  AVERAGE MISS PENALTY: 2097.48
LLC2 RFO       ACCESS: 1001491  HIT: 109117  MISS: 892374  HIT %: 10.8955  MISS %: 89.1045  AVERAGE MISS PENALTY: 2410.8
LLC2 PREFETCH  ACCESS: 255501  HIT:     0  MISS: 255501  HIT %:     0  MISS %:   100  AVERAGE MISS PENALTY: 2294.39
LLC2 WRITEBACK ACCESS: 1001699  HIT: 770541  MISS: 231158  HIT %: 76.9234  MISS %: 23.0766  AVERAGE MISS PENALTY: 0

LLC3 TOTAL     ACCESS: 2300355  HIT: 881380  MISS: 1418975  HIT %: 38.315  MISS %: 61.685  AVERAGE MISS PENALTY: 1993.5
LLC3 LOAD      ACCESS: 40773  HIT:    23  MISS: 40750  HIT %: 0.0564099  MISS %: 99.9436  AVERAGE MISS PENALTY: 2131.58
LLC3 RFO       ACCESS: 1001845  HIT: 109599  MISS: 892246  HIT %: 10.9397  MISS %: 89.0603  AVERAGE MISS PENALTY: 2416.36
LLC3 PREFETCH  ACCESS: 255698  HIT:     7  MISS: 255691  HIT %: 0.0027376  MISS %: 99.9973  AVERAGE MISS PENALTY: 2291.33
LLC3 WRITEBACK ACCESS: 1002039  HIT: 771751  MISS: 230288  HIT %: 77.0181  MISS %: 22.9819  AVERAGE MISS PENALTY: 0

LLC4 TOTAL     ACCESS: 2301440  HIT: 883138  MISS: 1418302  HIT %: 38.3733  MISS %: 61.6267  AVERAGE MISS PENALTY: 2031.21
LLC4 LOAD      ACCESS: 39333  HIT:     0  MISS: 39333  HIT %:     0  MISS %:   100  AVERAGE MISS PENALTY: 2116.65
LLC4 RFO       ACCESS: 1002167  HIT: 109843  MISS: 892324  HIT %: 10.9605  MISS %: 89.0395  AVERAGE MISS PENALTY: 2493.65
LLC4 PREFETCH  ACCESS: 257646  HIT:   313  MISS: 257333  HIT %: 0.121485  MISS %: 99.8785  AVERAGE MISS PENALTY: 2224.65
LLC4 WRITEBACK ACCESS: 1002294  HIT: 772982  MISS: 229312  HIT %: 77.1213  MISS %: 22.8787  AVERAGE MISS PENALTY: 0

LLC5 TOTAL     ACCESS: 2301901  HIT: 883031  MISS: 1418870  HIT %: 38.3609  MISS %: 61.6391  AVERAGE MISS PENALTY: 2026.03
LLC5 LOAD      ACCESS: 39596  HIT:     0  MISS: 39596  HIT %:     0  MISS %:   100  AVERAGE MISS PENALTY: 2114.56
LLC5 RFO       ACCESS: 1002387  HIT: 109983  MISS: 892404  HIT %: 10.9721  MISS %: 89.0279  AVERAGE MISS PENALTY: 2487.39
LLC5 PREFETCH  ACCESS: 257395  HIT:   344  MISS: 257051  HIT %: 0.133647  MISS %: 99.8664  AVERAGE MISS PENALTY: 2222.07
LLC5 WRITEBACK ACCESS: 1002523  HIT: 772704  MISS: 229819  HIT %: 77.0759  MISS %: 22.9241  AVERAGE MISS PENALTY: 0

LLC6 TOTAL     ACCESS: 2299889  HIT: 881043  MISS: 1418846  HIT %: 38.3081  MISS %: 61.6919  AVERAGE MISS PENALTY: 1999.57
LLC6 LOAD      ACCESS: 39927  HIT:     0  MISS: 39927  HIT %:     0  MISS %:   100  AVERAGE MISS PENALTY: 2145.02
LLC6 RFO       ACCESS: 1001685  HIT: 109289  MISS: 892396  HIT %: 10.9105  MISS %: 89.0895  AVERAGE MISS PENALTY: 2426.12
LLC6 PREFETCH  ACCESS: 256425  HIT:     0  MISS: 256425  HIT %:     0  MISS %:   100  AVERAGE MISS PENALTY: 2286.72
LLC6 WRITEBACK ACCESS: 1001852  HIT: 771754  MISS: 230098  HIT %: 77.0327  MISS %: 22.9673  AVERAGE MISS PENALTY: 0

LLC7 TOTAL     ACCESS: 2299473  HIT: 880406  MISS: 1419067  HIT %: 38.2873  MISS %: 61.7127  AVERAGE MISS PENALTY: 1993.89
LLC7 LOAD      ACCESS: 39980  HIT:     0  MISS: 39980  HIT %:     0  MISS %:   100  AVERAGE MISS PENALTY: 2131.24
LLC7 RFO       ACCESS: 1001474  HIT: 109166  MISS: 892308  HIT %: 10.9005  MISS %: 89.0995  AVERAGE MISS PENALTY: 2421.02
LLC7 PREFETCH  ACCESS: 256372  HIT:     0  MISS: 256372  HIT %:     0  MISS %:   100  AVERAGE MISS PENALTY: 2277.81
LLC7 WRITEBACK ACCESS: 1001647  HIT: 771240  MISS: 230407  HIT %: 76.9972  MISS %: 23.0028  AVERAGE MISS PENALTY: 0

Total Rob stall cycles : 	1545616716
Total Load Rob Stall cycles : 	1481945966
Average Rob Stall cycles : 	 122
Average Load Rob Stall cycles : 	 792

CPU 1 cumulative IPC: 0.123672 instructions: 200098452 cycles: 1617978251
ITLB TOTAL     ACCESS: 30708085  HIT: 30708085  MISS:     0  HIT %:   100  MISS %:     0  AVERAGE MISS PENALTY: 0
ITLB LOAD      ACCESS: 30708085  HIT: 30708085  MISS:     0  HIT %:   100  MISS %:     0  AVERAGE MISS PENALTY: 0
ITLB RFO       ACCESS:     0  HIT:     0  MISS:     0  HIT %:     0  MISS %:     0  AVERAGE MISS PENALTY: 0
ITLB PREFETCH  ACCESS:     0  HIT:     0  MISS:     0  HIT %:     0  MISS %:     0  AVERAGE MISS PENALTY: 0
ITLB WRITEBACK ACCESS:     0  HIT:     0  MISS:     0  HIT %:     0  MISS %:     0  AVERAGE MISS PENALTY: 0

DTLB TOTAL     ACCESS: 40269082  HIT: 39996318  MISS: 272764  HIT %: 99.3226  MISS %: 0.677353  AVERAGE MISS PENALTY: 87.2484
DTLB LOAD      ACCESS: 19476316  HIT: 19439301  MISS: 37015  HIT %: 99.8099  MISS %: 0.190051  AVERAGE MISS PENALTY: 109.002
DTLB RFO       ACCESS: 20792766  HIT: 20557017  MISS: 235749  HIT %: 98.8662  MISS %: 1.1338  AVERAGE MISS PENALTY: 83.8329
DTLB PREFETCH  ACCESS:     0  HIT:     0  MISS:     0  HIT %:     0  MISS %:     0  AVERAGE MISS PENALTY: 0
DTLB WRITEBACK ACCESS:     0  HIT:     0  MISS:     0  HIT %:     0  MISS %:     0  AVERAGE MISS PENALTY: 0

STLB TOTAL     ACCESS: 272764  HIT: 124758  MISS: 148006  HIT %: 45.7384  MISS %: 54.2616  AVERAGE MISS PENALTY: 100
STLB LOAD      ACCESS: 37015  HIT:     1  MISS: 37014  HIT %: 0.00270161  MISS %: 99.9973  AVERAGE MISS PENALTY: 100
STLB RFO       ACCESS: 235749  HIT: 124757  MISS: 110992  HIT %: 52.9194  MISS %: 47.0806  AVERAGE MISS PENALTY: 100
STLB PREFETCH  ACCESS:     0  HIT:     0  MISS:     0  HIT %:     0  MISS %:     0  AVERAGE MISS PENALTY: 0
STLB WRITEBACK ACCESS:     0  HIT:     0  MISS:     0  HIT %:     0  MISS %:     0  AVERAGE MISS PENALTY: 0

L1D TOTAL     ACCESS: 58501956  HIT: 42865383  MISS: 15636573  HIT %: 73.2717  MISS %: 26.7283  AVERAGE MISS PENALTY: 3.36046e+07
L1D LOAD      ACCESS: 16473289  HIT: 14923807  MISS: 1549482  HIT %: 90.594  MISS %: 9.40603  AVERAGE MISS PENALTY: 3.39106e+08
L1D RFO       ACCESS: 34618505  HIT: 21360985  MISS: 13257520  HIT %: 61.7039  MISS %: 38.2961  AVERAGE MISS PENALTY: 1610.83
L1D PREFETCH  ACCESS: 7410162  HIT: 6580591  MISS: 829571  HIT %: 88.805  MISS %: 11.195  AVERAGE MISS PENALTY: 1164.08
L1D WRITEBACK ACCESS:     0  HIT:     0  MISS:     0  HIT %:     0  MISS %:     0  AVERAGE MISS PENALTY: 0

L1I TOTAL     ACCESS: 42371651  HIT: 42371651  MISS:     0  HIT %:   100  MISS %:     0  AVERAGE MISS PENALTY: 0
L1I LOAD      ACCESS: 42371651  HIT: 42371651  MISS:     0  HIT %:   100  MISS %:     0  AVERAGE MISS PENALTY: 0
L1I RFO       ACCESS:     0  HIT:     0  MISS:     0  HIT %:     0  MISS %:     0  AVERAGE MISS PENALTY: 0
L1I PREFETCH  ACCESS:     0  HIT:     0  MISS:     0  HIT %:     0  MISS %:     0  AVERAGE MISS PENALTY: 0
L1I WRITEBACK ACCESS:     0  HIT:     0  MISS:     0  HIT %:     0  MISS %:     0  AVERAGE MISS PENALTY: 0

L2C TOTAL     ACCESS: 29704211  HIT: 19284236  MISS: 10419975  HIT %: 64.9209  MISS %: 35.0791  AVERAGE MISS PENALTY: 8.49453e+07
L2C LOAD      ACCESS: 1541244  HIT: 269199  MISS: 1272045  HIT %: 17.4663  MISS %: 82.5337  AVERAGE MISS PENALTY: 6.95814e+08
L2C RFO       ACCESS: 13257511  HIT: 5207192  MISS: 8050319  HIT %: 39.2773  MISS %: 60.7227  AVERAGE MISS PENALTY: 2425.07
L2C PREFETCH  ACCESS: 1647929  HIT: 550934  MISS: 1096995  HIT %: 33.4319  MISS %: 66.5681  AVERAGE MISS PENALTY: 1822.97
L2C WRITEBACK ACCESS: 13257527  HIT: 13256911  MISS:   616  HIT %: 99.9954  MISS %: 0.00464642  AVERAGE MISS PENALTY: 0


LLC0 TOTAL     ACCESS: 2307569  HIT: 890161  MISS: 1417408  HIT %: 38.5757  MISS %: 61.4243  AVERAGE MISS PENALTY: 2017.94
LLC0 LOAD      ACCESS: 66149  HIT:     0  MISS: 66149  HIT %:     0  MISS %:   100  AVERAGE MISS PENALTY: 2119.88
LLC0 RFO       ACCESS: 1005759  HIT: 114531  MISS: 891228  HIT %: 11.3875  MISS %: 88.6125  AVERAGE MISS PENALTY: 2480.14
LLC0 PREFETCH  ACCESS: 229769  HIT:     2  MISS: 229767  HIT %: 0.000870439  MISS %: 99.9991  AVERAGE MISS PENALTY: 2218.11
LLC0 WRITEBACK ACCESS: 1005892  HIT: 775628  MISS: 230264  HIT %: 77.1085  MISS %: 22.8915  AVERAGE MISS PENALTY: 0

LLC1 TOTAL     ACCESS: 2308039  HIT: 889637  MISS: 1418402  HIT %: 38.5451  MISS %: 61.4549  AVERAGE MISS PENALTY: 2017.29
LLC1 LOAD      ACCESS: 50715  HIT:    28  MISS: 50687  HIT %: 0.0552105  MISS %: 99.9448  AVERAGE MISS PENALTY: 2104.86
LLC1 RFO       ACCESS: 1005944  HIT: 114728  MISS: 891216  HIT %: 11.405  MISS %: 88.595  AVERAGE MISS PENALTY: 2480.86
LLC1 PREFETCH  ACCESS: 245301  HIT:     0  MISS: 245301  HIT %:     0  MISS %:   100  AVERAGE MISS PENALTY: 2216.31
LLC1 WRITEBACK ACCESS: 1006079  HIT: 774881  MISS: 231198  HIT %: 77.0199  MISS %: 22.9801  AVERAGE MISS PENALTY: 0

LLC2 TOTAL     ACCESS: 2307988  HIT: 890253  MISS: 1417735  HIT %: 38.5727  MISS %: 61.4273  AVERAGE MISS PENALTY: 1996.22
LLC2 LOAD      ACCESS: 40892  HIT:    17  MISS: 40875  HIT %: 0.0415729  MISS %: 99.9584  AVERAGE MISS PENALTY: 2109.24
LLC2 RFO       ACCESS: 1005924  HIT: 114654  MISS: 891270  HIT %: 11.3979  MISS %: 88.6021  AVERAGE MISS PENALTY: 2421.5
LLC2 PREFETCH  ACCESS: 255120  HIT:     0  MISS: 255120  HIT %:     0  MISS %:   100  AVERAGE MISS PENALTY: 2295.71
LLC2 WRITEBACK ACCESS: 1006052  HIT: 775582  MISS: 230470  HIT %: 77.0916  MISS %: 22.9084  AVERAGE MISS PENALTY: 0

LLC3 TOTAL     ACCESS: 2308076  HIT: 890429  MISS: 1417647  HIT %: 38.5788  MISS %: 61.4212  AVERAGE MISS PENALTY: 1995.24
LLC3 LOAD      ACCESS: 40780  HIT:    10  MISS: 40770  HIT %: 0.0245218  MISS %: 99.9755  AVERAGE MISS PENALTY: 2131.85
[...]
LLC1 AVERAGE MISS LATENCY: 2008.87 cycles
LLC2 TOTAL     ACCESS: 2304752  HIT: 888906  MISS: 1415846  HIT %: 38.5684  MISS %: 61.4316  AVERAGE MISS PENALTY: 1989.56
LLC2 LOAD      ACCESS: 41001  HIT:    22  MISS: 40979  HIT %: 0.0536572  MISS %: 99.9463  AVERAGE MISS PENALTY: 2115.07
LLC2 RFO       ACCESS: 1004274  HIT: 113653  MISS: 890621  HIT %: 11.3169  MISS %: 88.6831  AVERAGE MISS PENALTY: 2408.21
LLC2 PREFETCH  ACCESS: 254873  HIT:     0  MISS: 254873  HIT %:     0  MISS %:   100  AVERAGE MISS PENALTY: 2296.96
LLC2 WRITEBACK ACCESS: 1004604  HIT: 775231  MISS: 229373  HIT %: 77.1678  MISS %: 22.8322  AVERAGE MISS PENALTY: 0
LLC2 PREFETCH  REQUESTED:     0  ISSUED:     0  USEFUL:     0  USELESS: 2044330
 USEFUL LOAD PREFETCHES:          0 PREFETCH ISSUED TO LOWER LEVEL:  673713235  ACCURACY: 0
 TIMELY PREFETCHES:          0 LATE PREFETCHES: 0 DROPPED PREFETCHES: 0
LLC2 AVERAGE MISS LATENCY: 1989.56 cycles
LLC3 TOTAL     ACCESS: 2304654  HIT: 888221  MISS: 1416433  HIT %: 38.5403  MISS %: 61.4597  AVERAGE MISS PENALTY: 1990.19
LLC3 LOAD      ACCESS: 40630  HIT:    19  MISS: 40611  HIT %: 0.0467635  MISS %: 99.9532  AVERAGE MISS PENALTY: 2131.93
LLC3 RFO       ACCESS: 1004214  HIT: 113526  MISS: 890688  HIT %: 11.305  MISS %: 88.695  AVERAGE MISS PENALTY: 2410.86
LLC3 PREFETCH  ACCESS: 255257  HIT:     6  MISS: 255251  HIT %: 0.00235057  MISS %: 99.9976  AVERAGE MISS PENALTY: 2292.13
LLC3 WRITEBACK ACCESS: 1004553  HIT: 774670  MISS: 229883  HIT %: 77.1159  MISS %: 22.8841  AVERAGE MISS PENALTY: 0
LLC3 PREFETCH  REQUESTED:     0  ISSUED:     0  USEFUL:    36  USELESS: 2044866
 USEFUL LOAD PREFETCHES:         36 PREFETCH ISSUED TO LOWER LEVEL:  674279911  ACCURACY: 5.33903e-06
 TIMELY PREFETCHES:         36 LATE PREFETCHES: 0 DROPPED PREFETCHES: 0
LLC3 AVERAGE MISS LATENCY: 1990.19 cycles
LLC4 TOTAL     ACCESS: 2306238  HIT: 890918  MISS: 1415320  HIT %: 38.6308  MISS %: 61.3692  AVERAGE MISS PENALTY: 2028.17
LLC4 LOAD      ACCESS: 39024  HIT:     0  MISS: 39024  HIT %:     0  MISS %:   100  AVERAGE MISS PENALTY: 2127.69
LLC4 RFO       ACCESS: 1004814  HIT: 114162  MISS: 890652  HIT %: 11.3615  MISS %: 88.6385  AVERAGE MISS PENALTY: 2486.61
LLC4 PREFETCH  ACCESS: 257323  HIT:   284  MISS: 257039  HIT %: 0.110367  MISS %: 99.8896  AVERAGE MISS PENALTY: 2228.33
LLC4 WRITEBACK ACCESS: 1005077  HIT: 776472  MISS: 228605  HIT %: 77.255  MISS %: 22.745  AVERAGE MISS PENALTY: 0
LLC4 PREFETCH  REQUESTED:     0  ISSUED:     0  USEFUL:     0  USELESS: 2059753
 USEFUL LOAD PREFETCHES:          0 PREFETCH ISSUED TO LOWER LEVEL:  760866870  ACCURACY: 0
 TIMELY PREFETCHES:          0 LATE PREFETCHES: 0 DROPPED PREFETCHES: 0
LLC4 AVERAGE MISS LATENCY: 2028.17 cycles
LLC5 TOTAL     ACCESS: 2306508  HIT: 890169  MISS: 1416339  HIT %: 38.5938  MISS %: 61.4062  AVERAGE MISS PENALTY: 2018.22
LLC5 LOAD      ACCESS: 39456  HIT:     0  MISS: 39456  HIT %:     0  MISS %:   100  AVERAGE MISS PENALTY: 2116.41
LLC5 RFO       ACCESS: 1004949  HIT: 114219  MISS: 890730  HIT %: 11.3657  MISS %: 88.6343  AVERAGE MISS PENALTY: 2475.88
LLC5 PREFETCH  ACCESS: 256888  HIT:   261  MISS: 256627  HIT %: 0.101601  MISS %: 99.8984  AVERAGE MISS PENALTY: 2219.72
LLC5 WRITEBACK ACCESS: 1005215  HIT: 775689  MISS: 229526  HIT %: 77.1665  MISS %: 22.8335  AVERAGE MISS PENALTY: 0
LLC5 PREFETCH  REQUESTED:     0  ISSUED:     0  USEFUL:     0  USELESS: 2058305
 USEFUL LOAD PREFETCHES:          0 PREFETCH ISSUED TO LOWER LEVEL:  757391667  ACCURACY: 0
 TIMELY PREFETCHES:          0 LATE PREFETCHES: 0 DROPPED PREFETCHES: 0
LLC5 AVERAGE MISS LATENCY: 2018.22 cycles
LLC6 TOTAL     ACCESS: 2304609  HIT: 888208  MISS: 1416401  HIT %: 38.5405  MISS %: 61.4595  AVERAGE MISS PENALTY: 1997.18
LLC6 LOAD      ACCESS: 39972  HIT:     0  MISS: 39972  HIT %:     0  MISS %:   100  AVERAGE MISS PENALTY: 2152.26
LLC6 RFO       ACCESS: 1004273  HIT: 113565  MISS: 890708  HIT %: 11.3082  MISS %: 88.6918  AVERAGE MISS PENALTY: 2421.13
LLC6 PREFETCH  ACCESS: 255794  HIT:     0  MISS: 255794  HIT %:     0  MISS %:   100  AVERAGE MISS PENALTY: 2291.92
LLC6 WRITEBACK ACCESS: 1004570  HIT: 774643  MISS: 229927  HIT %: 77.1119  MISS %: 22.8881  AVERAGE MISS PENALTY: 0
LLC6 PREFETCH  REQUESTED:     0  ISSUED:     0  USEFUL:     0  USELESS: 2050790
 USEFUL LOAD PREFETCHES:          0 PREFETCH ISSUED TO LOWER LEVEL: 1075631005  ACCURACY: 0
 TIMELY PREFETCHES:          0 LATE PREFETCHES: 0 DROPPED PREFETCHES: 0
LLC6 AVERAGE MISS LATENCY: 1997.18 cycles
LLC7 TOTAL     ACCESS: 2304547  HIT: 888728  MISS: 1415819  HIT %: 38.5641  MISS %: 61.4359  AVERAGE MISS PENALTY: 1990.56
LLC7 LOAD      ACCESS: 39865  HIT:     0  MISS: 39865  HIT %:     0  MISS %:   100  AVERAGE MISS PENALTY: 2148.68
LLC7 RFO       ACCESS: 1004224  HIT: 113581  MISS: 890643  HIT %: 11.3103  MISS %: 88.6897  AVERAGE MISS PENALTY: 2413.05
LLC7 PREFETCH  ACCESS: 255902  HIT:     0  MISS: 255902  HIT %:     0  MISS %:   100  AVERAGE MISS PENALTY: 2279.96
LLC7 WRITEBACK ACCESS: 1004556  HIT: 775147  MISS: 229409  HIT %: 77.1631  MISS %: 22.8369  AVERAGE MISS PENALTY: 0
LLC7 PREFETCH  REQUESTED:     0  ISSUED:     0  USEFUL:     0  USELESS: 2051368
 USEFUL LOAD PREFETCHES:          0 PREFETCH ISSUED TO LOWER LEVEL: 1084804827  ACCURACY: 0
 TIMELY PREFETCHES:          0 LATE PREFETCHES: 0 DROPPED PREFETCHES: 0
LLC7 AVERAGE MISS LATENCY: 1990.56 cycles
ROI Average ROB Stall Cycles:	122.186
ROI Total ROB Stalls Cycles:	1540488478
ROI TOTAL ROB counter      :	12607712
ROI Average Load ROB Stall Cycles:	791.302
ROI Total Load ROB Stalls Cycle  :	1477003304
ROI Total Load ROB stalls Counter:	1866549
Major fault: 0 Minor fault: 151751

CPU 7 cumulative IPC: 0.123611 instructions: 200000000 cycles: 1617978251
ITLB TOTAL     ACCESS: 30698640  HIT: 30698640  MISS:     0  HIT %:   100  MISS %:     0  AVERAGE MISS PENALTY: 0
ITLB LOAD      ACCESS: 30698640  HIT: 30698640  MISS:     0  HIT %:   100  MISS %:     0  AVERAGE MISS PENALTY: 0
ITLB RFO       ACCESS:     0  HIT:     0  MISS:     0  HIT %:     0  MISS %:     0  AVERAGE MISS PENALTY: 0
ITLB PREFETCH  ACCESS:     0  HIT:     0  MISS:     0  HIT %:     0  MISS %:     0  AVERAGE MISS PENALTY: 0
ITLB WRITEBACK ACCESS:     0  HIT:     0  MISS:     0  HIT %:     0  MISS %:     0  AVERAGE MISS PENALTY: 0
ITLB PREFETCH  REQUESTED:     0  ISSUED:     0  USEFUL:     0  USELESS:     0
 USEFUL LOAD PREFETCHES:          0 PREFETCH ISSUED TO LOWER LEVEL:          0  ACCURACY: -nan
 TIMELY PREFETCHES:          0 LATE PREFETCHES: 0 DROPPED PREFETCHES: 0
ITLB AVERAGE MISS LATENCY: -nan cycles
DTLB TOTAL     ACCESS: 40251258  HIT: 39978630  MISS: 272628  HIT %: 99.3227  MISS %: 0.677315  AVERAGE MISS PENALTY: 87.255
DTLB LOAD      ACCESS: 19468197  HIT: 19431201  MISS: 36996  HIT %: 99.81  MISS %: 0.190033  AVERAGE MISS PENALTY: 109
DTLB RFO       ACCESS: 20783061  HIT: 20547429  MISS: 235632  HIT %: 98.8662  MISS %: 1.13377  AVERAGE MISS PENALTY: 83.8409
DTLB PREFETCH  ACCESS:     0  HIT:     0  MISS:     0  HIT %:     0  MISS %:     0  AVERAGE MISS PENALTY: 0
DTLB WRITEBACK ACCESS:     0  HIT:     0  MISS:     0  HIT %:     0  MISS %:     0  AVERAGE MISS PENALTY: 0
DTLB PREFETCH  REQUESTED:     0  ISSUED:     0  USEFUL:     0  USELESS:     0
 USEFUL LOAD PREFETCHES:          0 PREFETCH ISSUED TO LOWER LEVEL:          0  ACCURACY: -nan
 TIMELY PREFETCHES:          0 LATE PREFETCHES: 0 DROPPED PREFETCHES: 0
DTLB AVERAGE MISS LATENCY: 87.255 cycles
STLB TOTAL     ACCESS: 272628  HIT: 124696  MISS: 147932  HIT %: 45.7385  MISS %: 54.2615  AVERAGE MISS PENALTY: 100
STLB LOAD      ACCESS: 36996  HIT:     1  MISS: 36995  HIT %: 0.00270299  MISS %: 99.9973  AVERAGE MISS PENALTY: 100
STLB RFO       ACCESS: 235632  HIT: 124695  MISS: 110937  HIT %: 52.9194  MISS %: 47.0806  AVERAGE MISS PENALTY: 100
STLB PREFETCH  ACCESS:     0  HIT:     0  MISS:     0  HIT %:     0  MISS %:     0  AVERAGE MISS PENALTY: 0
STLB WRITEBACK ACCESS:     0  HIT:     0  MISS:     0  HIT %:     0  MISS %:     0  AVERAGE MISS PENALTY: 0
STLB PREFETCH  REQUESTED:     0  ISSUED:     0  USEFUL:     0  USELESS:     0
 USEFUL LOAD PREFETCHES:          0 PREFETCH ISSUED TO LOWER LEVEL:          0  ACCURACY: -nan
 TIMELY PREFETCHES:          0 LATE PREFETCHES: 0 DROPPED PREFETCHES: 0
STLB AVERAGE MISS LATENCY: 100 cycles
L1D TOTAL     ACCESS: 58408408  HIT: 42779595  MISS: 15628813  HIT %: 73.2422  MISS %: 26.7578  AVERAGE MISS PENALTY: 3.36037e+07
L1D LOAD      ACCESS: 16439647  HIT: 14889808  MISS: 1549839  HIT %: 90.5726  MISS %: 9.42745  AVERAGE MISS PENALTY: 3.38852e+08
L1D RFO       ACCESS: 34581169  HIT: 21330233  MISS: 13250936  HIT %: 61.6816  MISS %: 38.3184  AVERAGE MISS PENALTY: 1516.02
L1D PREFETCH  ACCESS: 7387592  HIT: 6559554  MISS: 828038  HIT %: 88.7915  MISS %: 11.2085  AVERAGE MISS PENALTY: 1162.22
L1D WRITEBACK ACCESS:     0  HIT:     0  MISS:     0  HIT %:     0  MISS %:     0  AVERAGE MISS PENALTY: 0
L1D PREFETCH  REQUESTED: 26153623  ISSUED: 22017571  USEFUL: 816747  USELESS: 11294
 USEFUL LOAD PREFETCHES:     816747 PREFETCH ISSUED TO LOWER LEVEL: 1924146278  ACCURACY: 0.0424472
 TIMELY PREFETCHES:     816747 LATE PREFETCHES: 1810170 DROPPED PREFETCHES: 4136052
L1D AVERAGE MISS LATENCY: 1501.92 cycles
L1I TOTAL     ACCESS: 42355127  HIT: 42355127  MISS:     0  HIT %:   100  MISS %:     0  AVERAGE MISS PENALTY: 0
L1I LOAD      ACCESS: 42355127  HIT: 42355127  MISS:     0  HIT %:   100  MISS %:     0  AVERAGE MISS PENALTY: 0
L1I RFO       ACCESS:     0  HIT:     0  MISS:     0  HIT %:     0  MISS %:     0  AVERAGE MISS PENALTY: 0
L1I PREFETCH  ACCESS:     0  HIT:     0  MISS:     0  HIT %:     0  MISS %:     0  AVERAGE MISS PENALTY: 0
L1I WRITEBACK ACCESS:     0  HIT:     0  MISS:     0  HIT %:     0  MISS %:     0  AVERAGE MISS PENALTY: 0
L1I PREFETCH  REQUESTED:     0  ISSUED:     0  USEFUL:     0  USELESS:     0
 USEFUL LOAD PREFETCHES:          0 PREFETCH ISSUED TO LOWER LEVEL:          0  ACCURACY: -nan
 TIMELY PREFETCHES:          0 LATE PREFETCHES: 0 DROPPED PREFETCHES: 0
L1I AVERAGE MISS LATENCY: -nan cycles
L2C TOTAL     ACCESS: 29690858  HIT: 19272392  MISS: 10418466  HIT %: 64.9102  MISS %: 35.0898  AVERAGE MISS PENALTY: 8.49317e+07
L2C LOAD      ACCESS: 1541538  HIT: 270069  MISS: 1271469  HIT %: 17.5195  MISS %: 82.4805  AVERAGE MISS PENALTY: 6.95916e+08
L2C RFO       ACCESS: 13250931  HIT: 5202984  MISS: 8047947  HIT %: 39.265  MISS %: 60.735  AVERAGE MISS PENALTY: 2425.4
L2C PREFETCH  ACCESS: 1647449  HIT: 551143  MISS: 1096306  HIT %: 33.4543  MISS %: 66.5457  AVERAGE MISS PENALTY: 1821.97
L2C WRITEBACK ACCESS: 13250940  HIT: 13248196  MISS:  2744  HIT %: 99.9793  MISS %: 0.020708  AVERAGE MISS PENALTY: 0
L2C PREFETCH  REQUESTED: 4130288  ISSUED: 4130267  USEFUL: 269952  USELESS: 827307
 USEFUL LOAD PREFETCHES:     269952 PREFETCH ISSUED TO LOWER LEVEL:    4120851  ACCURACY: 6.55088
 TIMELY PREFETCHES:     269952 LATE PREFETCHES: 1646294 DROPPED PREFETCHES: 21
L2C AVERAGE MISS LATENCY: 2164.25 cycles
LLC0 TOTAL     ACCESS: 2307089  HIT: 890580  MISS: 1416509  HIT %: 38.6019  MISS %: 61.3981  AVERAGE MISS PENALTY: 2021.54
LLC0 LOAD      ACCESS: 65628  HIT:     0  MISS: 65628  HIT %:     0  MISS %:   100  AVERAGE MISS PENALTY: 2114.81
LLC0 RFO       ACCESS: 1005485  HIT: 114741  MISS: 890744  HIT %: 11.4115  MISS %: 88.5885  AVERAGE MISS PENALTY: 2487.56
LLC0 PREFETCH  ACCESS: 230140  HIT:     1  MISS: 230139  HIT %: 0.000434518  MISS %: 99.9996  AVERAGE MISS PENALTY: 2211.54
LLC0 WRITEBACK ACCESS: 1005836  HIT: 775838  MISS: 229998  HIT %: 77.1336  MISS %: 22.8664  AVERAGE MISS PENALTY: 0
LLC0 PREFETCH  REQUESTED:     0  ISSUED:     0  USEFUL:     0  USELESS: 1845265
 USEFUL LOAD PREFETCHES:          0 PREFETCH ISSUED TO LOWER LEVEL:  567047087  ACCURACY: 0
 TIMELY PREFETCHES:          0 LATE PREFETCHES: 0 DROPPED PREFETCHES: 0
LLC0 AVERAGE MISS LATENCY: 2021.54 cycles
Deadblocks : 486851 Deadblock percentage : 741.834

LLC1 TOTAL     ACCESS: 2307415  HIT: 890558  MISS: 1416857  HIT %: 38.5955  MISS %: 61.4045  AVERAGE MISS PENALTY: 2024.06
LLC1 LOAD      ACCESS: 50515  HIT:    19  MISS: 50496  HIT %: 0.0376126  MISS %: 99.9624  AVERAGE MISS PENALTY: 2098.1
LLC1 RFO       ACCESS: 1005595  HIT: 114887  MISS: 890708  HIT %: 11.4248  MISS %: 88.5752  AVERAGE MISS PENALTY: 2490.22
LLC1 PREFETCH  ACCESS: 245351  HIT:     0  MISS: 245351  HIT %:     0  MISS %:   100  AVERAGE MISS PENALTY: 2216.43
LLC1 WRITEBACK ACCESS: 1005954  HIT: 775652  MISS: 230302  HIT %: 77.1061  MISS %: 22.8939  AVERAGE MISS PENALTY: 0
LLC1 PREFETCH  REQUESTED:     0  ISSUED:     0  USEFUL:     0  USELESS: 1967187
 USEFUL LOAD PREFETCHES:          0 PREFETCH ISSUED TO LOWER LEVEL:  598205221  ACCURACY: 0
 TIMELY PREFETCHES:          0 LATE PREFETCHES: 0 DROPPED PREFETCHES: 0
LLC1 AVERAGE MISS LATENCY: 2024.06 cycles
LLC2 TOTAL     ACCESS: 2307528  HIT: 889980  MISS: 1417548  HIT %: 38.5685  MISS %: 61.4315  AVERAGE MISS PENALTY: 1997.78
LLC2 LOAD      ACCESS: 40838  HIT:    21  MISS: 40817  HIT %: 0.0514227  MISS %: 99.9486  AVERAGE MISS PENALTY: 2106.96
LLC2 RFO       ACCESS: 1005648  HIT: 114860  MISS: 890788  HIT %: 11.4215  MISS %: 88.5785  AVERAGE MISS PENALTY: 2425.73
LLC2 PREFETCH  ACCESS: 255031  HIT:     0  MISS: 255031  HIT %:     0  MISS %:   100  AVERAGE MISS PENALTY: 2294.37
LLC2 WRITEBACK ACCESS: 1006011  HIT: 775099  MISS: 230912  HIT %: 77.0468  MISS %: 22.9532  AVERAGE MISS PENALTY: 0
LLC2 PREFETCH  REQUESTED:     0  ISSUED:     0  USEFUL:     0  USELESS: 2044330
 USEFUL LOAD PREFETCHES:          0 PREFETCH ISSUED TO LOWER LEVEL:  673713235  ACCURACY: 0
 TIMELY PREFETCHES:          0 LATE PREFETCHES: 0 DROPPED PREFETCHES: 0
LLC2 AVERAGE MISS LATENCY: 1997.78 cycles
LLC3 TOTAL     ACCESS: 2307488  HIT: 889783  MISS: 1417705  HIT %: 38.5607  MISS %: 61.4393  AVERAGE MISS PENALTY: 2001.5
LLC3 LOAD      ACCESS: 40784  HIT:    14  MISS: 40770  HIT %: 0.0343272  MISS %: 99.9657  AVERAGE MISS PENALTY: 2124.96
LLC3 RFO       ACCESS: 1005620  HIT: 114829  MISS: 890791  HIT %: 11.4187  MISS %: 88.5813  AVERAGE MISS PENALTY: 2430.74
LLC3 PREFETCH  ACCESS: 255106  HIT:     8  MISS: 255098  HIT %: 0.00313595  MISS %: 99.9969  AVERAGE MISS PENALTY: 2295.68
LLC3 WRITEBACK ACCESS: 1005978  HIT: 774932  MISS: 231046  HIT %: 77.0327  MISS %: 22.9673  AVERAGE MISS PENALTY: 0
LLC3 PREFETCH  REQUESTED:     0  ISSUED:     0  USEFUL:    36  USELESS: 2044866
 USEFUL LOAD PREFETCHES:         36 PREFETCH ISSUED TO LOWER LEVEL:  674279911  ACCURACY: 5.33903e-06
 TIMELY PREFETCHES:         36 LATE PREFETCHES: 0 DROPPED PREFETCHES: 0
LLC3 AVERAGE MISS LATENCY: 2001.5 cycles
LLC4 TOTAL     ACCESS: 2309283  HIT: 892123  MISS: 1417160  HIT %: 38.632  MISS %: 61.368  AVERAGE MISS PENALTY: 2037.03
LLC4 LOAD      ACCESS: 39071  HIT:     0  MISS: 39071  HIT %:     0  MISS %:   100  AVERAGE MISS PENALTY: 2108.3
LLC4 RFO       ACCESS: 1006280  HIT: 115523  MISS: 890757  HIT %: 11.4802  MISS %: 88.5198  AVERAGE MISS PENALTY: 2507.87
LLC4 PREFETCH  ACCESS: 257351  HIT:   344  MISS: 257007  HIT %: 0.13367  MISS %: 99.8663  AVERAGE MISS PENALTY: 2219.9
LLC4 WRITEBACK ACCESS: 1006581  HIT: 776256  MISS: 230325  HIT %: 77.1181  MISS %: 22.8819  AVERAGE MISS PENALTY: 0
LLC4 PREFETCH  REQUESTED:     0  ISSUED:     0  USEFUL:     0  USELESS: 2059753
 USEFUL LOAD PREFETCHES:          0 PREFETCH ISSUED TO LOWER LEVEL:  760866870  ACCURACY: 0
 TIMELY PREFETCHES:          0 LATE PREFETCHES: 0 DROPPED PREFETCHES: 0
LLC4 AVERAGE MISS LATENCY: 2037.03 cycles
LLC5 TOTAL     ACCESS: 2308963  HIT: 892348  MISS: 1416615  HIT %: 38.6471  MISS %: 61.3529  AVERAGE MISS PENALTY: 2035.09
LLC5 LOAD      ACCESS: 39604  HIT:     0  MISS: 39604  HIT %:     0  MISS %:   100  AVERAGE MISS PENALTY: 2102.9
LLC5 RFO       ACCESS: 1006121  HIT: 115378  MISS: 890743  HIT %: 11.4676  MISS %: 88.5324  AVERAGE MISS PENALTY: 2502.93
LLC5 PREFETCH  ACCESS: 256821  HIT:   336  MISS: 256485  HIT %: 0.13083  MISS %: 99.8692  AVERAGE MISS PENALTY: 2223.12
LLC5 WRITEBACK ACCESS: 1006417  HIT: 776634  MISS: 229783  HIT %: 77.1682  MISS %: 22.8318  AVERAGE MISS PENALTY: 0
LLC5 PREFETCH  REQUESTED:     0  ISSUED:     0  USEFUL:     0  USELESS: 2058305
 USEFUL LOAD PREFETCHES:          0 PREFETCH ISSUED TO LOWER LEVEL:  757391667  ACCURACY: 0
 TIMELY PREFETCHES:          0 LATE PREFETCHES: 0 DROPPED PREFETCHES: 0
LLC5 AVERAGE MISS LATENCY: 2035.09 cycles
LLC6 TOTAL     ACCESS: 2307339  HIT: 889838  MISS: 1417501  HIT %: 38.5656  MISS %: 61.4344  AVERAGE MISS PENALTY: 2005.33
LLC6 LOAD      ACCESS: 40131  HIT:     0  MISS: 40131  HIT %:     0  MISS %:   100  AVERAGE MISS PENALTY: 2146.7
LLC6 RFO       ACCESS: 1005616  HIT: 114829  MISS: 890787  HIT %: 11.4188  MISS %: 88.5812  AVERAGE MISS PENALTY: 2439.53
LLC6 PREFETCH  ACCESS: 255636  HIT:     0  MISS: 255636  HIT %:     0  MISS %:   100  AVERAGE MISS PENALTY: 2281.79
LLC6 WRITEBACK ACCESS: 1005956  HIT: 775009  MISS: 230947  HIT %: 77.042  MISS %: 22.958  AVERAGE MISS PENALTY: 0
LLC6 PREFETCH  REQUESTED:     0  ISSUED:     0  USEFUL:     0  USELESS: 2050790
 USEFUL LOAD PREFETCHES:          0 PREFETCH ISSUED TO LOWER LEVEL: 1075631005  ACCURACY: 0
 TIMELY PREFETCHES:          0 LATE PREFETCHES: 0 DROPPED PREFETCHES: 0
LLC6 AVERAGE MISS LATENCY: 2005.33 cycles
LLC7 TOTAL     ACCESS: 2307288  HIT: 890671  MISS: 1416617  HIT %: 38.6025  MISS %: 61.3975  AVERAGE MISS PENALTY: 2003.97
LLC7 LOAD      ACCESS: 40006  HIT:     0  MISS: 40006  HIT %:     0  MISS %:   100  AVERAGE MISS PENALTY: 2135.57
LLC7 RFO       ACCESS: 1005598  HIT: 114832  MISS: 890766  HIT %: 11.4193  MISS %: 88.5807  AVERAGE MISS PENALTY: 2438.18
LLC7 PREFETCH  ACCESS: 255762  HIT:     0  MISS: 255762  HIT %:     0  MISS %:   100  AVERAGE MISS PENALTY: 2273.86
LLC7 WRITEBACK ACCESS: 1005922  HIT: 775839  MISS: 230083  HIT %: 77.1272  MISS %: 22.8728  AVERAGE MISS PENALTY: 0
LLC7 PREFETCH  REQUESTED:     0  ISSUED:     0  USEFUL:     0  USELESS: 2051368
 USEFUL LOAD PREFETCHES:          0 PREFETCH ISSUED TO LOWER LEVEL: 1084804827  ACCURACY: 0
 TIMELY PREFETCHES:          0 LATE PREFETCHES: 0 DROPPED PREFETCHES: 0
LLC7 AVERAGE MISS LATENCY: 2003.97 cycles
ROI Average ROB Stall Cycles:	122.536
ROI Total ROB Stalls Cycles:	1545365868
ROI TOTAL ROB counter      :	12611511
ROI Average Load ROB Stall Cycles:	793.347
ROI Total Load ROB Stalls Cycle  :	1481661522
ROI Total Load ROB stalls Counter:	1867608
Major fault: 0 Minor fault: 151498








Interconnect Stats 
LINK 0 BW : 0LINK 1 BW : 0LINK 2 BW : 0LINK 3 BW : 0LINK 4 BW : 0LINK 5 BW : 0LINK 6 BW : 0LINK 7 BW : 0
DRAM Statistics
 CHANNEL 0
 RQ ROW_BUFFER_HIT: 14070250  ROW_BUFFER_MISS: 23965530
 DBUS_CONGESTED: 90484491
 WQ ROW_BUFFER_HIT: 708965  ROW_BUFFER_MISS: 28414218  FULL:    41

 CHANNEL 1
 RQ ROW_BUFFER_HIT: 14069321  ROW_BUFFER_MISS: 23967289
 DBUS_CONGESTED: 90484491
 WQ ROW_BUFFER_HIT: 707415  ROW_BUFFER_MISS: 28415632  FULL:    88

 AVG_CONGESTED_CYCLE: 6
DRAM PAGES: 2097152
Allocated PAGES: 1213014
L2C destructor called
L1D destructor called
L1I destructor called
STLB destructor called
DTLB destructor called
ITLB destructor called
L2C destructor called
L1D destructor called
L1I destructor called
STLB destructor called
DTLB destructor called
ITLB destructor called
L2C destructor called
L1D destructor called
L1I destructor called
STLB destructor called
DTLB destructor called
ITLB destructor called
L2C destructor called
L1D destructor called
L1I destructor called
STLB destructor called
DTLB destructor called
ITLB destructor called
L2C destructor called
L1D destructor called
L1I destructor called
STLB destructor called
DTLB destructor called
ITLB destructor called
L2C destructor called
L1D destructor called
L1I destructor called
STLB destructor called
DTLB destructor called
ITLB destructor called
L2C destructor called
L1D destructor called
L1I destructor called
STLB destructor called
DTLB destructor called
ITLB destructor called
L2C destructor called
L1D destructor called
L1I destructor called
STLB destructor called
DTLB destructor called
ITLB destructor called
