
*** ChampSim Multicore Out-of-Order Simulator ***

Warmup Instructions: 200000000
Simulation Instructions: 200000000
Number of CPUs: 8
threads:1

L1I Configuration:
L1I_SET:64
L1I_WAY:8
L1I_RQ_SIZE:64
L1I_WQ_SIZE:64
L1I_PQ_SIZE:8
L1I_MSHR_SIZE:8

L1D Configuration:
L1D_SET:64
L1D_WAY:12
L1D_RQ_SIZE:64
L1D_WQ_SIZE:64
L1D_PQ_SIZE:8
L1D_MSHR_SIZE:16

L2C Configuration:
L2C_SET:1024
L2C_WAY:8
L2C_RQ_SIZE:32
L2C_WQ_SIZE:32
L2C_PQ_SIZE:16
L2C_MSHR_SIZE:32

LLC Configuration:
LLC_SET:2048
LLC_WAY:16
LLC SLICES:8
LLC_RQ_SIZE:64
LLC_WQ_SIZE:64
LLC_PQ_SIZE:32
LLC_MSHR_SIZE:64

Interconnect OFF
Attacker deprioritize is: OFF
Off-chip DRAM Size: 8192 MB Channels: 2 Width: 64-bit Data Rate: 3200 MT/s
PAGE SIZE in KB: 4.000000 
PAGE SIZE in MB: 0.003906 
PAGE offset in bits: 12 
CEASER-S_LLC:0
MIRAGE : 1
CEASER_LATENCY:3
REMAP : OFF
Partitions : 1
Multi-Step : OFF
BFS : OFF

CPU 0 runs /home/anubhav/spec_2017/619.lbm_s-3766B.champsimtrace.xz
CPU 1 runs /home/anubhav/spec_2017/619.lbm_s-3766B.champsimtrace.xz
CPU 2 runs /home/anubhav/spec_2017/619.lbm_s-3766B.champsimtrace.xz
CPU 3 runs /home/anubhav/spec_2017/619.lbm_s-3766B.champsimtrace.xz
CPU 4 runs /home/anubhav/spec_2017/619.lbm_s-3766B.champsimtrace.xz
CPU 5 runs /home/anubhav/spec_2017/619.lbm_s-3766B.champsimtrace.xz
CPU 6 runs /home/anubhav/spec_2017/619.lbm_s-3766B.champsimtrace.xz
CPU 7 runs /home/anubhav/spec_2017/619.lbm_s-3766B.champsimtrace.xz
CPU 0 Bimodal branch predictor
Initialize Hawkeye state
Initialize Hawkeye state
Initialize Hawkeye state
Initialize Hawkeye state
Initialize Hawkeye state
Initialize Hawkeye state
Initialize Hawkeye state
Initialize Hawkeye state
CPU 1 Bimodal branch predictor
Initialize Hawkeye state
Initialize Hawkeye state
Initialize Hawkeye state
Initialize Hawkeye state
Initialize Hawkeye state
Initialize Hawkeye state
Initialize Hawkeye state
Initialize Hawkeye state
CPU 2 Bimodal branch predictor
Initialize Hawkeye state
Initialize Hawkeye state
Initialize Hawkeye state
Initialize Hawkeye state
Initialize Hawkeye state
Initialize Hawkeye state
Initialize Hawkeye state
Initialize Hawkeye state
CPU 3 Bimodal branch predictor
Initialize Hawkeye state
Initialize Hawkeye state
Initialize Hawkeye state
Initialize Hawkeye state
Initialize Hawkeye state
Initialize Hawkeye state
Initialize Hawkeye state
Initialize Hawkeye state
CPU 4 Bimodal branch predictor
Initialize Hawkeye state
Initialize Hawkeye state
Initialize Hawkeye state
Initialize Hawkeye state
Initialize Hawkeye state
Initialize Hawkeye state
Initialize Hawkeye state
Initialize Hawkeye state
CPU 5 Bimodal branch predictor
Initialize Hawkeye state
Initialize Hawkeye state
Initialize Hawkeye state
Initialize Hawkeye state
Initialize Hawkeye state
Initialize Hawkeye state
Initialize Hawkeye state
Initialize Hawkeye state
CPU 6 Bimodal branch predictor
Initialize Hawkeye state
Initialize Hawkeye state
Initialize Hawkeye state
Initialize Hawkeye state
Initialize Hawkeye state
Initialize Hawkeye state
Initialize Hawkeye state
Initialize Hawkeye state
CPU 7 Bimodal branch predictor
Initialize Hawkeye state
Initialize Hawkeye state
Initialize Hawkeye state
Initialize Hawkeye state
Initialize Hawkeye state
Initialize Hawkeye state
Initialize Hawkeye state
Initialize Hawkeye state
Heartbeat CPU 6 instructions: 10000001 cycles: 3512313 heartbeat IPC: 2.84713 cumulative IPC: 2.84713 (Simulation time: 0 hr 29 min 40 sec) 
 Total Blocks : 262144 Invalid Blocks : 150
Heartbeat CPU 4 instructions: 10000001 cycles: 3512320 heartbeat IPC: 2.84712 cumulative IPC: 2.84712 (Simulation time: 0 hr 29 min 40 sec) 
 Total Blocks : 262144 Invalid Blocks : 150
Heartbeat CPU 5 instructions: 10000001 cycles: 3512321 heartbeat IPC: 2.84712 cumulative IPC: 2.84712 (Simulation time: 0 hr 29 min 40 sec) 
 Total Blocks : 262144 Invalid Blocks : 150
Heartbeat CPU 2 instructions: 10000001 cycles: 3512328 heartbeat IPC: 2.84711 cumulative IPC: 2.84711 (Simulation time: 0 hr 29 min 40 sec) 
 Total Blocks : 262144 Invalid Blocks : 150
Heartbeat CPU 3 instructions: 10000001 cycles: 3512354 heartbeat IPC: 2.84709 cumulative IPC: 2.84709 (Simulation time: 0 hr 29 min 40 sec) 
 Total Blocks : 262144 Invalid Blocks : 150
Heartbeat CPU 7 instructions: 10000001 cycles: 3512355 heartbeat IPC: 2.84709 cumulative IPC: 2.84709 (Simulation time: 0 hr 29 min 40 sec) 
 Total Blocks : 262144 Invalid Blocks : 150
Heartbeat CPU 0 instructions: 10000001 cycles: 3512389 heartbeat IPC: 2.84707 cumulative IPC: 2.84707 (Simulation time: 0 hr 29 min 40 sec) 
 Total Blocks : 262144 Invalid Blocks : 150
Heartbeat CPU 1 instructions: 10000001 cycles: 3512414 heartbeat IPC: 2.84705 cumulative IPC: 2.84705 (Simulation time: 0 hr 29 min 40 sec) 
 Total Blocks : 262144 Invalid Blocks : 150
Heartbeat CPU 6 instructions: 20000003 cycles: 7031631 heartbeat IPC: 2.84146 cumulative IPC: 2.84429 (Simulation time: 1 hr 12 min 13 sec) 
 Total Blocks : 262144 Invalid Blocks : 0
Heartbeat CPU 5 instructions: 20000003 cycles: 7031650 heartbeat IPC: 2.84145 cumulative IPC: 2.84428 (Simulation time: 1 hr 12 min 13 sec) 
 Total Blocks : 262144 Invalid Blocks : 0
Heartbeat CPU 4 instructions: 20000003 cycles: 7031658 heartbeat IPC: 2.84144 cumulative IPC: 2.84428 (Simulation time: 1 hr 12 min 13 sec) 
 Total Blocks : 262144 Invalid Blocks : 0
Heartbeat CPU 7 instructions: 20000003 cycles: 7031666 heartbeat IPC: 2.84147 cumulative IPC: 2.84428 (Simulation time: 1 hr 12 min 13 sec) 
 Total Blocks : 262144 Invalid Blocks : 0
Heartbeat CPU 2 instructions: 20000003 cycles: 7031721 heartbeat IPC: 2.8414 cumulative IPC: 2.84425 (Simulation time: 1 hr 12 min 13 sec) 
 Total Blocks : 262144 Invalid Blocks : 0
Heartbeat CPU 3 instructions: 20000003 cycles: 7031741 heartbeat IPC: 2.8414 cumulative IPC: 2.84425 (Simulation time: 1 hr 12 min 13 sec) 
 Total Blocks : 262144 Invalid Blocks : 0
Heartbeat CPU 0 instructions: 20000003 cycles: 7031798 heartbeat IPC: 2.84139 cumulative IPC: 2.84422 (Simulation time: 1 hr 12 min 13 sec) 
 Total Blocks : 262144 Invalid Blocks : 0
Heartbeat CPU 1 instructions: 20000003 cycles: 7031842 heartbeat IPC: 2.84137 cumulative IPC: 2.84421 (Simulation time: 1 hr 12 min 13 sec) 
 Total Blocks : 262144 Invalid Blocks : 0
Heartbeat CPU 6 instructions: 30000000 cycles: 10544064 heartbeat IPC: 2.84703 cumulative IPC: 2.8452 (Simulation time: 1 hr 51 min 18 sec) 
 Total Blocks : 262144 Invalid Blocks : 0
Heartbeat CPU 7 instructions: 30000000 cycles: 10544076 heartbeat IPC: 2.84705 cumulative IPC: 2.8452 (Simulation time: 1 hr 51 min 18 sec) 
 Total Blocks : 262144 Invalid Blocks : 0
Heartbeat CPU 5 instructions: 30000000 cycles: 10544155 heartbeat IPC: 2.84697 cumulative IPC: 2.84518 (Simulation time: 1 hr 51 min 18 sec) 
 Total Blocks : 262144 Invalid Blocks : 0
Heartbeat CPU 4 instructions: 30000000 cycles: 10544201 heartbeat IPC: 2.84694 cumulative IPC: 2.84517 (Simulation time: 1 hr 51 min 18 sec) 
 Total Blocks : 262144 Invalid Blocks : 0
Heartbeat CPU 3 instructions: 30000000 cycles: 10544247 heartbeat IPC: 2.84697 cumulative IPC: 2.84515 (Simulation time: 1 hr 51 min 19 sec) 
 Total Blocks : 262144 Invalid Blocks : 0
Heartbeat CPU 1 instructions: 30000000 cycles: 10544268 heartbeat IPC: 2.84703 cumulative IPC: 2.84515 (Simulation time: 1 hr 51 min 19 sec) 
 Total Blocks : 262144 Invalid Blocks : 0
Heartbeat CPU 0 instructions: 30000000 cycles: 10544269 heartbeat IPC: 2.847 cumulative IPC: 2.84515 (Simulation time: 1 hr 51 min 19 sec) 
 Total Blocks : 262144 Invalid Blocks : 0
Heartbeat CPU 2 instructions: 30000000 cycles: 10544272 heartbeat IPC: 2.84693 cumulative IPC: 2.84515 (Simulation time: 1 hr 51 min 19 sec) 
 Total Blocks : 262144 Invalid Blocks : 0
Heartbeat CPU 6 instructions: 40000001 cycles: 14063130 heartbeat IPC: 2.84166 cumulative IPC: 2.84432 (Simulation time: 2 hr 34 min 10 sec) 
 Total Blocks : 262144 Invalid Blocks : 0
Heartbeat CPU 7 instructions: 40000001 cycles: 14063146 heartbeat IPC: 2.84166 cumulative IPC: 2.84431 (Simulation time: 2 hr 34 min 10 sec) 
 Total Blocks : 262144 Invalid Blocks : 0
Heartbeat CPU 5 instructions: 40000001 cycles: 14063236 heartbeat IPC: 2.84165 cumulative IPC: 2.8443 (Simulation time: 2 hr 34 min 10 sec) 
 Total Blocks : 262144 Invalid Blocks : 0
Heartbeat CPU 4 instructions: 40000001 cycles: 14063278 heartbeat IPC: 2.84165 cumulative IPC: 2.84429 (Simulation time: 2 hr 34 min 10 sec) 
 Total Blocks : 262144 Invalid Blocks : 0
Heartbeat CPU 1 instructions: 40000001 cycles: 14063296 heartbeat IPC: 2.84169 cumulative IPC: 2.84428 (Simulation time: 2 hr 34 min 10 sec) 
 Total Blocks : 262144 Invalid Blocks : 0
Heartbeat CPU 0 instructions: 40000001 cycles: 14063300 heartbeat IPC: 2.84169 cumulative IPC: 2.84428 (Simulation time: 2 hr 34 min 10 sec) 
 Total Blocks : 262144 Invalid Blocks : 0
Heartbeat CPU 3 instructions: 40000001 cycles: 14063305 heartbeat IPC: 2.84167 cumulative IPC: 2.84428 (Simulation time: 2 hr 34 min 10 sec) 
 Total Blocks : 262144 Invalid Blocks : 0
Heartbeat CPU 2 instructions: 40000001 cycles: 14063402 heartbeat IPC: 2.84161 cumulative IPC: 2.84426 (Simulation time: 2 hr 34 min 10 sec) 
 Total Blocks : 262144 Invalid Blocks : 0
Heartbeat CPU 6 instructions: 50000001 cycles: 17582216 heartbeat IPC: 2.84165 cumulative IPC: 2.84378 (Simulation time: 3 hr 20 min 32 sec) 
 Total Blocks : 262144 Invalid Blocks : 0
Heartbeat CPU 7 instructions: 50000001 cycles: 17582281 heartbeat IPC: 2.84161 cumulative IPC: 2.84377 (Simulation time: 3 hr 20 min 32 sec) 
 Total Blocks : 262144 Invalid Blocks : 0
Heartbeat CPU 5 instructions: 50000001 cycles: 17582304 heartbeat IPC: 2.84166 cumulative IPC: 2.84377 (Simulation time: 3 hr 20 min 32 sec) 
 Total Blocks : 262144 Invalid Blocks : 0
Heartbeat CPU 4 instructions: 50000001 cycles: 17582367 heartbeat IPC: 2.84164 cumulative IPC: 2.84376 (Simulation time: 3 hr 20 min 32 sec) 
 Total Blocks : 262144 Invalid Blocks : 0
Heartbeat CPU 3 instructions: 50000001 cycles: 17582406 heartbeat IPC: 2.84163 cumulative IPC: 2.84375 (Simulation time: 3 hr 20 min 32 sec) 
 Total Blocks : 262144 Invalid Blocks : 0
Heartbeat CPU 0 instructions: 50000001 cycles: 17582432 heartbeat IPC: 2.84161 cumulative IPC: 2.84375 (Simulation time: 3 hr 20 min 32 sec) 
 Total Blocks : 262144 Invalid Blocks : 0
Heartbeat CPU 1 instructions: 50000001 cycles: 17582443 heartbeat IPC: 2.8416 cumulative IPC: 2.84375 (Simulation time: 3 hr 20 min 32 sec) 
 Total Blocks : 262144 Invalid Blocks : 0
Heartbeat CPU 2 instructions: 50000001 cycles: 17582573 heartbeat IPC: 2.84158 cumulative IPC: 2.84372 (Simulation time: 3 hr 20 min 32 sec) 
 Total Blocks : 262144 Invalid Blocks : 0
Heartbeat CPU 6 instructions: 60000001 cycles: 21094580 heartbeat IPC: 2.84709 cumulative IPC: 2.84433 (Simulation time: 4 hr 9 min 48 sec) 
 Total Blocks : 262144 Invalid Blocks : 0
Heartbeat CPU 7 instructions: 60000001 cycles: 21094581 heartbeat IPC: 2.84714 cumulative IPC: 2.84433 (Simulation time: 4 hr 9 min 48 sec) 
 Total Blocks : 262144 Invalid Blocks : 0
Heartbeat CPU 5 instructions: 60000001 cycles: 21094691 heartbeat IPC: 2.84707 cumulative IPC: 2.84432 (Simulation time: 4 hr 9 min 49 sec) 
 Total Blocks : 262144 Invalid Blocks : 0
Heartbeat CPU 4 instructions: 60000001 cycles: 21094734 heartbeat IPC: 2.84708 cumulative IPC: 2.84431 (Simulation time: 4 hr 9 min 49 sec) 
 Total Blocks : 262144 Invalid Blocks : 0
Heartbeat CPU 3 instructions: 60000001 cycles: 21094770 heartbeat IPC: 2.84709 cumulative IPC: 2.84431 (Simulation time: 4 hr 9 min 49 sec) 
 Total Blocks : 262144 Invalid Blocks : 0
Heartbeat CPU 0 instructions: 60000001 cycles: 21094831 heartbeat IPC: 2.84706 cumulative IPC: 2.8443 (Simulation time: 4 hr 9 min 49 sec) 
 Total Blocks : 262144 Invalid Blocks : 0
Heartbeat CPU 1 instructions: 60000001 cycles: 21094851 heartbeat IPC: 2.84705 cumulative IPC: 2.8443 (Simulation time: 4 hr 9 min 49 sec) 
 Total Blocks : 262144 Invalid Blocks : 0
Heartbeat CPU 2 instructions: 60000001 cycles: 21094962 heartbeat IPC: 2.84706 cumulative IPC: 2.84428 (Simulation time: 4 hr 9 min 49 sec) 
 Total Blocks : 262144 Invalid Blocks : 0
Heartbeat CPU 7 instructions: 70000003 cycles: 24613488 heartbeat IPC: 2.84179 cumulative IPC: 2.84397 (Simulation time: 5 hr 1 min 40 sec) 
 Total Blocks : 262144 Invalid Blocks : 0
Heartbeat CPU 6 instructions: 70000003 cycles: 24613514 heartbeat IPC: 2.84177 cumulative IPC: 2.84397 (Simulation time: 5 hr 1 min 40 sec) 
 Total Blocks : 262144 Invalid Blocks : 0
Heartbeat CPU 5 instructions: 70000003 cycles: 24613657 heartbeat IPC: 2.84174 cumulative IPC: 2.84395 (Simulation time: 5 hr 1 min 40 sec) 
 Total Blocks : 262144 Invalid Blocks : 0
Heartbeat CPU 4 instructions: 70000003 cycles: 24613702 heartbeat IPC: 2.84174 cumulative IPC: 2.84394 (Simulation time: 5 hr 1 min 40 sec) 
 Total Blocks : 262144 Invalid Blocks : 0
Heartbeat CPU 3 instructions: 70000003 cycles: 24613748 heartbeat IPC: 2.84173 cumulative IPC: 2.84394 (Simulation time: 5 hr 1 min 40 sec) 
 Total Blocks : 262144 Invalid Blocks : 0
Heartbeat CPU 1 instructions: 70000003 cycles: 24613766 heartbeat IPC: 2.84179 cumulative IPC: 2.84394 (Simulation time: 5 hr 1 min 40 sec) 
 Total Blocks : 262144 Invalid Blocks : 0
Heartbeat CPU 0 instructions: 70000003 cycles: 24613772 heartbeat IPC: 2.84176 cumulative IPC: 2.84394 (Simulation time: 5 hr 1 min 40 sec) 
 Total Blocks : 262144 Invalid Blocks : 0
Heartbeat CPU 2 instructions: 70000003 cycles: 24613910 heartbeat IPC: 2.84176 cumulative IPC: 2.84392 (Simulation time: 5 hr 1 min 40 sec) 
 Total Blocks : 262144 Invalid Blocks : 0
Heartbeat CPU 7 instructions: 80000001 cycles: 28126154 heartbeat IPC: 2.84684 cumulative IPC: 2.84433 (Simulation time: 5 hr 56 min 28 sec) 
 Total Blocks : 262144 Invalid Blocks : 0
Heartbeat CPU 6 instructions: 80000001 cycles: 28126172 heartbeat IPC: 2.84685 cumulative IPC: 2.84433 (Simulation time: 5 hr 56 min 28 sec) 
 Total Blocks : 262144 Invalid Blocks : 0
Heartbeat CPU 5 instructions: 80000001 cycles: 28126290 heartbeat IPC: 2.84687 cumulative IPC: 2.84431 (Simulation time: 5 hr 56 min 28 sec) 
 Total Blocks : 262144 Invalid Blocks : 0
Heartbeat CPU 4 instructions: 80000001 cycles: 28126345 heartbeat IPC: 2.84686 cumulative IPC: 2.84431 (Simulation time: 5 hr 56 min 29 sec) 
 Total Blocks : 262144 Invalid Blocks : 0
Heartbeat CPU 3 instructions: 80000001 cycles: 28126417 heartbeat IPC: 2.84684 cumulative IPC: 2.8443 (Simulation time: 5 hr 56 min 29 sec) 
 Total Blocks : 262144 Invalid Blocks : 0
Heartbeat CPU 0 instructions: 80000001 cycles: 28126438 heartbeat IPC: 2.84684 cumulative IPC: 2.8443 (Simulation time: 5 hr 56 min 29 sec) 
 Total Blocks : 262144 Invalid Blocks : 0
Heartbeat CPU 1 instructions: 80000001 cycles: 28126445 heartbeat IPC: 2.84683 cumulative IPC: 2.8443 (Simulation time: 5 hr 56 min 29 sec) 
 Total Blocks : 262144 Invalid Blocks : 0
Heartbeat CPU 2 instructions: 80000001 cycles: 28126567 heartbeat IPC: 2.84685 cumulative IPC: 2.84429 (Simulation time: 5 hr 56 min 29 sec) 
 Total Blocks : 262144 Invalid Blocks : 0
Heartbeat CPU 7 instructions: 90000002 cycles: 31644946 heartbeat IPC: 2.84188 cumulative IPC: 2.84406 (Simulation time: 6 hr 55 min 20 sec) 
 Total Blocks : 262144 Invalid Blocks : 0
Heartbeat CPU 6 instructions: 90000002 cycles: 31644971 heartbeat IPC: 2.84188 cumulative IPC: 2.84405 (Simulation time: 6 hr 55 min 20 sec) 
 Total Blocks : 262144 Invalid Blocks : 0
Heartbeat CPU 5 instructions: 90000002 cycles: 31645159 heartbeat IPC: 2.84182 cumulative IPC: 2.84404 (Simulation time: 6 hr 55 min 20 sec) 
 Total Blocks : 262144 Invalid Blocks : 0
Heartbeat CPU 4 instructions: 90000002 cycles: 31645176 heartbeat IPC: 2.84185 cumulative IPC: 2.84404 (Simulation time: 6 hr 55 min 20 sec) 
 Total Blocks : 262144 Invalid Blocks : 0
Heartbeat CPU 0 instructions: 90000002 cycles: 31645240 heartbeat IPC: 2.84188 cumulative IPC: 2.84403 (Simulation time: 6 hr 55 min 20 sec) 
 Total Blocks : 262144 Invalid Blocks : 0
Heartbeat CPU 3 instructions: 90000002 cycles: 31645251 heartbeat IPC: 2.84185 cumulative IPC: 2.84403 (Simulation time: 6 hr 55 min 21 sec) 
 Total Blocks : 262144 Invalid Blocks : 0
Heartbeat CPU 1 instructions: 90000002 cycles: 31645291 heartbeat IPC: 2.84184 cumulative IPC: 2.84403 (Simulation time: 6 hr 55 min 21 sec) 
 Total Blocks : 262144 Invalid Blocks : 0
Heartbeat CPU 2 instructions: 90000002 cycles: 31645401 heartbeat IPC: 2.84185 cumulative IPC: 2.84402 (Simulation time: 6 hr 55 min 21 sec) 
 Total Blocks : 262144 Invalid Blocks : 0
Heartbeat CPU 7 instructions: 100000000 cycles: 35157519 heartbeat IPC: 2.84692 cumulative IPC: 2.84434 (Simulation time: 7 hr 57 min 2 sec) 
 Total Blocks : 262144 Invalid Blocks : 0
Heartbeat CPU 6 instructions: 100000000 cycles: 35157527 heartbeat IPC: 2.84693 cumulative IPC: 2.84434 (Simulation time: 7 hr 57 min 2 sec) 
 Total Blocks : 262144 Invalid Blocks : 0
Heartbeat CPU 5 instructions: 100000000 cycles: 35157712 heartbeat IPC: 2.84693 cumulative IPC: 2.84433 (Simulation time: 7 hr 57 min 2 sec) 
 Total Blocks : 262144 Invalid Blocks : 0
Heartbeat CPU 4 instructions: 100000000 cycles: 35157714 heartbeat IPC: 2.84694 cumulative IPC: 2.84433 (Simulation time: 7 hr 57 min 2 sec) 
 Total Blocks : 262144 Invalid Blocks : 0
Heartbeat CPU 3 instructions: 100000000 cycles: 35157781 heartbeat IPC: 2.84695 cumulative IPC: 2.84432 (Simulation time: 7 hr 57 min 2 sec) 
 Total Blocks : 262144 Invalid Blocks : 0
Heartbeat CPU 0 instructions: 100000000 cycles: 35157816 heartbeat IPC: 2.84691 cumulative IPC: 2.84432 (Simulation time: 7 hr 57 min 2 sec) 
 Total Blocks : 262144 Invalid Blocks : 0
Heartbeat CPU 1 instructions: 100000000 cycles: 35157886 heartbeat IPC: 2.8469 cumulative IPC: 2.84431 (Simulation time: 7 hr 57 min 2 sec) 
 Total Blocks : 262144 Invalid Blocks : 0
Heartbeat CPU 2 instructions: 100000000 cycles: 35157957 heartbeat IPC: 2.84693 cumulative IPC: 2.84431 (Simulation time: 7 hr 57 min 3 sec) 
 Total Blocks : 262144 Invalid Blocks : 0
Heartbeat CPU 7 instructions: 110000000 cycles: 38699120 heartbeat IPC: 2.82358 cumulative IPC: 2.84244 (Simulation time: 9 hr 5 min 5 sec) 
 Total Blocks : 262144 Invalid Blocks : 0
Heartbeat CPU 6 instructions: 110000000 cycles: 38699177 heartbeat IPC: 2.82354 cumulative IPC: 2.84244 (Simulation time: 9 hr 5 min 5 sec) 
 Total Blocks : 262144 Invalid Blocks : 0
Heartbeat CPU 4 instructions: 110000000 cycles: 38699353 heartbeat IPC: 2.82355 cumulative IPC: 2.84242 (Simulation time: 9 hr 5 min 5 sec) 
 Total Blocks : 262144 Invalid Blocks : 0
Heartbeat CPU 5 instructions: 110000000 cycles: 38699369 heartbeat IPC: 2.82354 cumulative IPC: 2.84242 (Simulation time: 9 hr 5 min 5 sec) 
 Total Blocks : 262144 Invalid Blocks : 0
Heartbeat CPU 3 instructions: 110000000 cycles: 38699407 heartbeat IPC: 2.82356 cumulative IPC: 2.84242 (Simulation time: 9 hr 5 min 5 sec) 
 Total Blocks : 262144 Invalid Blocks : 0
Heartbeat CPU 0 instructions: 110000000 cycles: 38699445 heartbeat IPC: 2.82356 cumulative IPC: 2.84242 (Simulation time: 9 hr 5 min 5 sec) 
 Total Blocks : 262144 Invalid Blocks : 0
Heartbeat CPU 1 instructions: 110000000 cycles: 38699527 heartbeat IPC: 2.82355 cumulative IPC: 2.84241 (Simulation time: 9 hr 5 min 5 sec) 
 Total Blocks : 262144 Invalid Blocks : 0
Heartbeat CPU 2 instructions: 110000000 cycles: 38699575 heartbeat IPC: 2.82357 cumulative IPC: 2.84241 (Simulation time: 9 hr 5 min 5 sec) 
 Total Blocks : 262144 Invalid Blocks : 0
Heartbeat CPU 6 instructions: 120000002 cycles: 42255681 heartbeat IPC: 2.81175 cumulative IPC: 2.83985 (Simulation time: 10 hr 17 min 14 sec) 
 Total Blocks : 262144 Invalid Blocks : 0
Heartbeat CPU 7 instructions: 120000002 cycles: 42255693 heartbeat IPC: 2.8117 cumulative IPC: 2.83985 (Simulation time: 10 hr 17 min 14 sec) 
 Total Blocks : 262144 Invalid Blocks : 0
Heartbeat CPU 5 instructions: 120000002 cycles: 42255811 heartbeat IPC: 2.8118 cumulative IPC: 2.83985 (Simulation time: 10 hr 17 min 14 sec) 
 Total Blocks : 262144 Invalid Blocks : 0
Heartbeat CPU 4 instructions: 120000002 cycles: 42255838 heartbeat IPC: 2.81177 cumulative IPC: 2.83984 (Simulation time: 10 hr 17 min 14 sec) 
 Total Blocks : 262144 Invalid Blocks : 0
Heartbeat CPU 3 instructions: 120000002 cycles: 42255882 heartbeat IPC: 2.81177 cumulative IPC: 2.83984 (Simulation time: 10 hr 17 min 14 sec) 
 Total Blocks : 262144 Invalid Blocks : 0
Heartbeat CPU 0 instructions: 120000002 cycles: 42256025 heartbeat IPC: 2.81169 cumulative IPC: 2.83983 (Simulation time: 10 hr 17 min 14 sec) 
 Total Blocks : 262144 Invalid Blocks : 0
Heartbeat CPU 2 instructions: 120000002 cycles: 42256075 heartbeat IPC: 2.81175 cumulative IPC: 2.83983 (Simulation time: 10 hr 17 min 14 sec) 
 Total Blocks : 262144 Invalid Blocks : 0
Heartbeat CPU 1 instructions: 120000002 cycles: 42256117 heartbeat IPC: 2.81168 cumulative IPC: 2.83983 (Simulation time: 10 hr 17 min 14 sec) 
 Total Blocks : 262144 Invalid Blocks : 0
Heartbeat CPU 7 instructions: 130000001 cycles: 45906488 heartbeat IPC: 2.73913 cumulative IPC: 2.83184 (Simulation time: 11 hr 39 min 56 sec) 
 Total Blocks : 262144 Invalid Blocks : 0
Heartbeat CPU 6 instructions: 130000001 cycles: 45906511 heartbeat IPC: 2.7391 cumulative IPC: 2.83184 (Simulation time: 11 hr 39 min 56 sec) 
 Total Blocks : 262144 Invalid Blocks : 0
Heartbeat CPU 5 instructions: 130000001 cycles: 45906772 heartbeat IPC: 2.739 cumulative IPC: 2.83183 (Simulation time: 11 hr 39 min 56 sec) 
 Total Blocks : 262144 Invalid Blocks : 0
Heartbeat CPU 3 instructions: 130000001 cycles: 45906802 heartbeat IPC: 2.73904 cumulative IPC: 2.83182 (Simulation time: 11 hr 39 min 56 sec) 
 Total Blocks : 262144 Invalid Blocks : 0
Heartbeat CPU 4 instructions: 130000001 cycles: 45906835 heartbeat IPC: 2.73898 cumulative IPC: 2.83182 (Simulation time: 11 hr 39 min 56 sec) 
 Total Blocks : 262144 Invalid Blocks : 0
Heartbeat CPU 2 instructions: 130000001 cycles: 45906910 heartbeat IPC: 2.7391 cumulative IPC: 2.83182 (Simulation time: 11 hr 39 min 57 sec) 
 Total Blocks : 262144 Invalid Blocks : 0
Heartbeat CPU 0 instructions: 130000001 cycles: 45906997 heartbeat IPC: 2.739 cumulative IPC: 2.83181 (Simulation time: 11 hr 39 min 57 sec) 
 Total Blocks : 262144 Invalid Blocks : 0
Heartbeat CPU 1 instructions: 130000001 cycles: 45907025 heartbeat IPC: 2.73904 cumulative IPC: 2.83181 (Simulation time: 11 hr 39 min 57 sec) 
 Total Blocks : 262144 Invalid Blocks : 0
Heartbeat CPU 7 instructions: 140000001 cycles: 49618389 heartbeat IPC: 2.69404 cumulative IPC: 2.82153 (Simulation time: 13 hr 9 min 44 sec) 
 Total Blocks : 262144 Invalid Blocks : 0
Heartbeat CPU 6 instructions: 140000001 cycles: 49618516 heartbeat IPC: 2.69396 cumulative IPC: 2.82153 (Simulation time: 13 hr 9 min 44 sec) 
 Total Blocks : 262144 Invalid Blocks : 0
Heartbeat CPU 5 instructions: 140000001 cycles: 49618709 heartbeat IPC: 2.69401 cumulative IPC: 2.82152 (Simulation time: 13 hr 9 min 45 sec) 
 Total Blocks : 262144 Invalid Blocks : 0
Heartbeat CPU 4 instructions: 140000001 cycles: 49618785 heartbeat IPC: 2.694 cumulative IPC: 2.82151 (Simulation time: 13 hr 9 min 45 sec) 
 Total Blocks : 262144 Invalid Blocks : 0
Heartbeat CPU 3 instructions: 140000001 cycles: 49618799 heartbeat IPC: 2.69397 cumulative IPC: 2.82151 (Simulation time: 13 hr 9 min 45 sec) 
 Total Blocks : 262144 Invalid Blocks : 0
Heartbeat CPU 2 instructions: 140000001 cycles: 49618916 heartbeat IPC: 2.69396 cumulative IPC: 2.8215 (Simulation time: 13 hr 9 min 45 sec) 
 Total Blocks : 262144 Invalid Blocks : 0
Heartbeat CPU 1 instructions: 140000001 cycles: 49619044 heartbeat IPC: 2.69395 cumulative IPC: 2.8215 (Simulation time: 13 hr 9 min 45 sec) 
 Total Blocks : 262144 Invalid Blocks : 0
Heartbeat CPU 0 instructions: 140000001 cycles: 49619143 heartbeat IPC: 2.69386 cumulative IPC: 2.82149 (Simulation time: 13 hr 9 min 45 sec) 
 Total Blocks : 262144 Invalid Blocks : 0
Heartbeat CPU 6 instructions: 150000001 cycles: 53425937 heartbeat IPC: 2.62645 cumulative IPC: 2.80763 (Simulation time: 14 hr 55 min 50 sec) 
 Total Blocks : 262144 Invalid Blocks : 0
Heartbeat CPU 7 instructions: 150000001 cycles: 53426026 heartbeat IPC: 2.6263 cumulative IPC: 2.80762 (Simulation time: 14 hr 55 min 51 sec) 
 Total Blocks : 262144 Invalid Blocks : 0
Heartbeat CPU 4 instructions: 150000001 cycles: 53426284 heartbeat IPC: 2.6264 cumulative IPC: 2.80761 (Simulation time: 14 hr 55 min 51 sec) 
 Total Blocks : 262144 Invalid Blocks : 0
Heartbeat CPU 5 instructions: 150000001 cycles: 53426289 heartbeat IPC: 2.62634 cumulative IPC: 2.80761 (Simulation time: 14 hr 55 min 51 sec) 
 Total Blocks : 262144 Invalid Blocks : 0
Heartbeat CPU 3 instructions: 150000001 cycles: 53426367 heartbeat IPC: 2.62635 cumulative IPC: 2.8076 (Simulation time: 14 hr 55 min 51 sec) 
 Total Blocks : 262144 Invalid Blocks : 0
Heartbeat CPU 2 instructions: 150000001 cycles: 53426440 heartbeat IPC: 2.62638 cumulative IPC: 2.8076 (Simulation time: 14 hr 55 min 51 sec) 
 Total Blocks : 262144 Invalid Blocks : 0
Heartbeat CPU 1 instructions: 150000001 cycles: 53426771 heartbeat IPC: 2.62624 cumulative IPC: 2.80758 (Simulation time: 14 hr 55 min 52 sec) 
 Total Blocks : 262144 Invalid Blocks : 0
Heartbeat CPU 0 instructions: 150000001 cycles: 53426946 heartbeat IPC: 2.62619 cumulative IPC: 2.80757 (Simulation time: 14 hr 55 min 52 sec) 
 Total Blocks : 262144 Invalid Blocks : 0
Heartbeat CPU 6 instructions: 160000000 cycles: 57402117 heartbeat IPC: 2.51498 cumulative IPC: 2.78735 (Simulation time: 17 hr 14 min 40 sec) 
 Total Blocks : 262144 Invalid Blocks : 0
Heartbeat CPU 7 instructions: 160000000 cycles: 57402190 heartbeat IPC: 2.51499 cumulative IPC: 2.78735 (Simulation time: 17 hr 14 min 40 sec) 
 Total Blocks : 262144 Invalid Blocks : 0
Heartbeat CPU 3 instructions: 160000000 cycles: 57402194 heartbeat IPC: 2.5152 cumulative IPC: 2.78735 (Simulation time: 17 hr 14 min 40 sec) 
 Total Blocks : 262144 Invalid Blocks : 0
Heartbeat CPU 5 instructions: 160000000 cycles: 57402242 heartbeat IPC: 2.51512 cumulative IPC: 2.78735 (Simulation time: 17 hr 14 min 41 sec) 
 Total Blocks : 262144 Invalid Blocks : 0
Heartbeat CPU 4 instructions: 160000000 cycles: 57402434 heartbeat IPC: 2.515 cumulative IPC: 2.78734 (Simulation time: 17 hr 14 min 41 sec) 
 Total Blocks : 262144 Invalid Blocks : 0
Heartbeat CPU 2 instructions: 160000000 cycles: 57402874 heartbeat IPC: 2.51482 cumulative IPC: 2.78732 (Simulation time: 17 hr 14 min 41 sec) 
 Total Blocks : 262144 Invalid Blocks : 0
Heartbeat CPU 1 instructions: 160000000 cycles: 57402954 heartbeat IPC: 2.51497 cumulative IPC: 2.78731 (Simulation time: 17 hr 14 min 42 sec) 
 Total Blocks : 262144 Invalid Blocks : 0
Heartbeat CPU 0 instructions: 160000000 cycles: 57403442 heartbeat IPC: 2.51478 cumulative IPC: 2.78729 (Simulation time: 17 hr 14 min 43 sec) 
 Total Blocks : 262144 Invalid Blocks : 0
Heartbeat CPU 6 instructions: 170000002 cycles: 61562756 heartbeat IPC: 2.40348 cumulative IPC: 2.76141 (Simulation time: 20 hr 17 min 38 sec) 
 Total Blocks : 262144 Invalid Blocks : 0
Heartbeat CPU 5 instructions: 170000002 cycles: 61562779 heartbeat IPC: 2.40354 cumulative IPC: 2.76141 (Simulation time: 20 hr 17 min 38 sec) 
 Total Blocks : 262144 Invalid Blocks : 0
Heartbeat CPU 4 instructions: 170000002 cycles: 61563327 heartbeat IPC: 2.40333 cumulative IPC: 2.76138 (Simulation time: 20 hr 17 min 40 sec) 
 Total Blocks : 262144 Invalid Blocks : 0
Heartbeat CPU 7 instructions: 170000002 cycles: 61563479 heartbeat IPC: 2.4031 cumulative IPC: 2.76138 (Simulation time: 20 hr 17 min 40 sec) 
 Total Blocks : 262144 Invalid Blocks : 0
Heartbeat CPU 3 instructions: 170000002 cycles: 61563669 heartbeat IPC: 2.40299 cumulative IPC: 2.76137 (Simulation time: 20 hr 17 min 41 sec) 
 Total Blocks : 262144 Invalid Blocks : 0
Heartbeat CPU 2 instructions: 170000002 cycles: 61563926 heartbeat IPC: 2.40324 cumulative IPC: 2.76136 (Simulation time: 20 hr 17 min 42 sec) 
 Total Blocks : 262144 Invalid Blocks : 0
Heartbeat CPU 1 instructions: 170000002 cycles: 61563963 heartbeat IPC: 2.40326 cumulative IPC: 2.76136 (Simulation time: 20 hr 17 min 42 sec) 
 Total Blocks : 262144 Invalid Blocks : 0
Heartbeat CPU 0 instructions: 170000002 cycles: 61564647 heartbeat IPC: 2.40315 cumulative IPC: 2.76133 (Simulation time: 20 hr 17 min 44 sec) 
 Total Blocks : 262144 Invalid Blocks : 0
Heartbeat CPU 6 instructions: 180000002 cycles: 65806201 heartbeat IPC: 2.35658 cumulative IPC: 2.7353 (Simulation time: 23 hr 52 min 48 sec) 
 Total Blocks : 262144 Invalid Blocks : 0
Heartbeat CPU 5 instructions: 180000002 cycles: 65806525 heartbeat IPC: 2.35641 cumulative IPC: 2.73529 (Simulation time: 23 hr 52 min 49 sec) 
 Total Blocks : 262144 Invalid Blocks : 0
Heartbeat CPU 7 instructions: 180000002 cycles: 65806861 heartbeat IPC: 2.35661 cumulative IPC: 2.73528 (Simulation time: 23 hr 52 min 50 sec) 
 Total Blocks : 262144 Invalid Blocks : 0
Heartbeat CPU 3 instructions: 180000002 cycles: 65807006 heartbeat IPC: 2.35664 cumulative IPC: 2.73527 (Simulation time: 23 hr 52 min 50 sec) 
 Total Blocks : 262144 Invalid Blocks : 0
Heartbeat CPU 4 instructions: 180000002 cycles: 65807346 heartbeat IPC: 2.35626 cumulative IPC: 2.73526 (Simulation time: 23 hr 52 min 52 sec) 
 Total Blocks : 262144 Invalid Blocks : 0
Heartbeat CPU 2 instructions: 180000002 cycles: 65807490 heartbeat IPC: 2.35651 cumulative IPC: 2.73525 (Simulation time: 23 hr 52 min 52 sec) 
 Total Blocks : 262144 Invalid Blocks : 0
Heartbeat CPU 1 instructions: 180000002 cycles: 65807517 heartbeat IPC: 2.35652 cumulative IPC: 2.73525 (Simulation time: 23 hr 52 min 52 sec) 
 Total Blocks : 262144 Invalid Blocks : 0
Heartbeat CPU 0 instructions: 180000002 cycles: 65808469 heartbeat IPC: 2.35637 cumulative IPC: 2.73521 (Simulation time: 23 hr 52 min 57 sec) 
 Total Blocks : 262144 Invalid Blocks : 0
Heartbeat CPU 6 instructions: 190000002 cycles: 70109261 heartbeat IPC: 2.32393 cumulative IPC: 2.71006 (Simulation time: 27 hr 51 min 28 sec) 
 Total Blocks : 262144 Invalid Blocks : 0
Heartbeat CPU 5 instructions: 190000002 cycles: 70109342 heartbeat IPC: 2.32406 cumulative IPC: 2.71005 (Simulation time: 27 hr 51 min 28 sec) 
 Total Blocks : 262144 Invalid Blocks : 0
Heartbeat CPU 7 instructions: 190000002 cycles: 70109380 heartbeat IPC: 2.32422 cumulative IPC: 2.71005 (Simulation time: 27 hr 51 min 28 sec) 
 Total Blocks : 262144 Invalid Blocks : 0
Heartbeat CPU 4 instructions: 190000002 cycles: 70110068 heartbeat IPC: 2.32411 cumulative IPC: 2.71002 (Simulation time: 27 hr 51 min 29 sec) 
 Total Blocks : 262144 Invalid Blocks : 0
Heartbeat CPU 3 instructions: 190000002 cycles: 70110089 heartbeat IPC: 2.32392 cumulative IPC: 2.71002 (Simulation time: 27 hr 51 min 29 sec) 
 Total Blocks : 262144 Invalid Blocks : 0
Heartbeat CPU 2 instructions: 190000002 cycles: 70110462 heartbeat IPC: 2.32398 cumulative IPC: 2.71001 (Simulation time: 27 hr 51 min 30 sec) 
 Total Blocks : 262144 Invalid Blocks : 0
Heartbeat CPU 1 instructions: 190000002 cycles: 70110590 heartbeat IPC: 2.32392 cumulative IPC: 2.71 (Simulation time: 27 hr 51 min 30 sec) 
 Total Blocks : 262144 Invalid Blocks : 0
Heartbeat CPU 0 instructions: 190000002 cycles: 70111139 heartbeat IPC: 2.32414 cumulative IPC: 2.70998 (Simulation time: 27 hr 51 min 30 sec) 
 Total Blocks : 262144 Invalid Blocks : 0
Heartbeat CPU 6 instructions: 200000000 cycles: 74316796 heartbeat IPC: 2.37669 cumulative IPC: 2.69118 (Simulation time: 32 hr 0 min 59 sec) 
 Total Blocks : 262144 Invalid Blocks : 0
Heartbeat CPU 7 instructions: 200000000 cycles: 74316941 heartbeat IPC: 2.37667 cumulative IPC: 2.69118 (Simulation time: 32 hr 1 min 0 sec) 
 Total Blocks : 262144 Invalid Blocks : 0
Heartbeat CPU 5 instructions: 200000000 cycles: 74317219 heartbeat IPC: 2.37649 cumulative IPC: 2.69117 (Simulation time: 32 hr 1 min 1 sec) 
 Total Blocks : 262144 Invalid Blocks : 0
Heartbeat CPU 4 instructions: 200000000 cycles: 74317288 heartbeat IPC: 2.37687 cumulative IPC: 2.69116 (Simulation time: 32 hr 1 min 2 sec) 
 Total Blocks : 262144 Invalid Blocks : 0
Heartbeat CPU 3 instructions: 200000000 cycles: 74317683 heartbeat IPC: 2.37665 cumulative IPC: 2.69115 (Simulation time: 32 hr 1 min 3 sec) 
 Total Blocks : 262144 Invalid Blocks : 0
Heartbeat CPU 1 instructions: 200000000 cycles: 74318019 heartbeat IPC: 2.37675 cumulative IPC: 2.69114 (Simulation time: 32 hr 1 min 4 sec) 
 Total Blocks : 262144 Invalid Blocks : 0
Heartbeat CPU 2 instructions: 200000000 cycles: 74318046 heartbeat IPC: 2.37666 cumulative IPC: 2.69114 (Simulation time: 32 hr 1 min 4 sec) 
 Total Blocks : 262144 Invalid Blocks : 0
Heartbeat CPU 0 instructions: 200000000 cycles: 74318750 heartbeat IPC: 2.37665 cumulative IPC: 2.69111 (Simulation time: 32 hr 1 min 5 sec) 
 Total Blocks : 262144 Invalid Blocks : 0

Warmup complete CPU 0 instructions: 200000004 cycles: 74318751 (Simulation time: 32 hr 1 min 5 sec) 
Warmup complete CPU 1 instructions: 200001839 cycles: 74318750 (Simulation time: 32 hr 1 min 5 sec) 
Warmup complete CPU 2 instructions: 200001828 cycles: 74318750 (Simulation time: 32 hr 1 min 5 sec) 
Warmup complete CPU 3 instructions: 200002881 cycles: 74318750 (Simulation time: 32 hr 1 min 5 sec) 
Warmup complete CPU 4 instructions: 200003959 cycles: 74318750 (Simulation time: 32 hr 1 min 5 sec) 
Warmup complete CPU 5 instructions: 200004149 cycles: 74318750 (Simulation time: 32 hr 1 min 5 sec) 
Warmup complete CPU 6 instructions: 200005105 cycles: 74318750 (Simulation time: 32 hr 1 min 5 sec) 
Warmup complete CPU 7 instructions: 200004911 cycles: 74318750 (Simulation time: 32 hr 1 min 5 sec) 

Heartbeat CPU 6 instructions: 210000001 cycles: 166948114 heartbeat IPC: 0.107955 cumulative IPC: 0.107902 (Simulation time: 39 hr 53 min 25 sec) 
 Total Blocks : 262144 Invalid Blocks : 0
Heartbeat CPU 0 instructions: 210000001 cycles: 166951362 heartbeat IPC: 0.107953 cumulative IPC: 0.107953 (Simulation time: 39 hr 53 min 27 sec) 
 Total Blocks : 262144 Invalid Blocks : 0
Heartbeat CPU 5 instructions: 210000001 cycles: 167211519 heartbeat IPC: 0.107649 cumulative IPC: 0.107606 (Simulation time: 39 hr 54 min 57 sec) 
 Total Blocks : 262144 Invalid Blocks : 0
Heartbeat CPU 7 instructions: 210000001 cycles: 167350521 heartbeat IPC: 0.107488 cumulative IPC: 0.107437 (Simulation time: 39 hr 55 min 39 sec) 
 Total Blocks : 262144 Invalid Blocks : 0
Heartbeat CPU 4 instructions: 210000001 cycles: 167506744 heartbeat IPC: 0.107308 cumulative IPC: 0.107267 (Simulation time: 39 hr 56 min 29 sec) 
 Total Blocks : 262144 Invalid Blocks : 0
Heartbeat CPU 2 instructions: 210000001 cycles: 167707072 heartbeat IPC: 0.107079 cumulative IPC: 0.10706 (Simulation time: 39 hr 57 min 33 sec) 
 Total Blocks : 262144 Invalid Blocks : 0
Heartbeat CPU 1 instructions: 210000001 cycles: 167909100 heartbeat IPC: 0.106848 cumulative IPC: 0.106829 (Simulation time: 39 hr 58 min 41 sec) 
 Total Blocks : 262144 Invalid Blocks : 0
Heartbeat CPU 3 instructions: 210000001 cycles: 169086799 heartbeat IPC: 0.10552 cumulative IPC: 0.10549 (Simulation time: 40 hr 5 min 32 sec) 
 Total Blocks : 262144 Invalid Blocks : 0
Heartbeat CPU 0 instructions: 220000000 cycles: 251838601 heartbeat IPC: 0.117803 cumulative IPC: 0.112663 (Simulation time: 47 hr 56 min 14 sec) 
 Total Blocks : 262144 Invalid Blocks : 0
Heartbeat CPU 6 instructions: 220000000 cycles: 251940580 heartbeat IPC: 0.117657 cumulative IPC: 0.11257 (Simulation time: 47 hr 56 min 48 sec) 
 Total Blocks : 262144 Invalid Blocks : 0
Heartbeat CPU 5 instructions: 220000000 cycles: 252102010 heartbeat IPC: 0.117799 cumulative IPC: 0.112473 (Simulation time: 47 hr 57 min 48 sec) 
 Total Blocks : 262144 Invalid Blocks : 0
Heartbeat CPU 4 instructions: 220000000 cycles: 252306222 heartbeat IPC: 0.117925 cumulative IPC: 0.112345 (Simulation time: 47 hr 58 min 59 sec) 
 Total Blocks : 262144 Invalid Blocks : 0
Heartbeat CPU 7 instructions: 220000000 cycles: 252476906 heartbeat IPC: 0.117472 cumulative IPC: 0.112232 (Simulation time: 47 hr 59 min 56 sec) 
 Total Blocks : 262144 Invalid Blocks : 0
Heartbeat CPU 2 instructions: 220000000 cycles: 252562074 heartbeat IPC: 0.117848 cumulative IPC: 0.112196 (Simulation time: 48 hr 0 min 23 sec) 
 Total Blocks : 262144 Invalid Blocks : 0
Heartbeat CPU 1 instructions: 220000000 cycles: 253591840 heartbeat IPC: 0.11671 cumulative IPC: 0.111551 (Simulation time: 48 hr 6 min 16 sec) 
 Total Blocks : 262144 Invalid Blocks : 0
Heartbeat CPU 3 instructions: 220000000 cycles: 254905425 heartbeat IPC: 0.116525 cumulative IPC: 0.110734 (Simulation time: 48 hr 12 min 41 sec) 
 Total Blocks : 262144 Invalid Blocks : 0
Heartbeat CPU 0 instructions: 230000003 cycles: 334878560 heartbeat IPC: 0.120424 cumulative IPC: 0.115137 (Simulation time: 55 hr 56 min 41 sec) 
 Total Blocks : 262144 Invalid Blocks : 0
Heartbeat CPU 6 instructions: 230000003 cycles: 335021241 heartbeat IPC: 0.120365 cumulative IPC: 0.115054 (Simulation time: 55 hr 57 min 34 sec) 
 Total Blocks : 262144 Invalid Blocks : 0
Heartbeat CPU 5 instructions: 230000003 cycles: 335170641 heartbeat IPC: 0.120382 cumulative IPC: 0.114992 (Simulation time: 55 hr 58 min 28 sec) 
 Total Blocks : 262144 Invalid Blocks : 0
Heartbeat CPU 4 instructions: 230000003 cycles: 335574743 heartbeat IPC: 0.120093 cumulative IPC: 0.114815 (Simulation time: 56 hr 0 min 49 sec) 
 Total Blocks : 262144 Invalid Blocks : 0
Heartbeat CPU 2 instructions: 230000003 cycles: 335717469 heartbeat IPC: 0.120257 cumulative IPC: 0.11476 (Simulation time: 56 hr 1 min 27 sec) 
 Total Blocks : 262144 Invalid Blocks : 0
Heartbeat CPU 7 instructions: 230000003 cycles: 336170999 heartbeat IPC: 0.119483 cumulative IPC: 0.11455 (Simulation time: 56 hr 3 min 13 sec) 
 Total Blocks : 262144 Invalid Blocks : 0
Heartbeat CPU 1 instructions: 230000003 cycles: 337563203 heartbeat IPC: 0.119088 cumulative IPC: 0.113956 (Simulation time: 56 hr 9 min 48 sec) 
 Total Blocks : 262144 Invalid Blocks : 0
Heartbeat CPU 3 instructions: 230000003 cycles: 338257316 heartbeat IPC: 0.119973 cumulative IPC: 0.113652 (Simulation time: 56 hr 13 min 44 sec) 
 Total Blocks : 262144 Invalid Blocks : 0
Heartbeat CPU 0 instructions: 240000003 cycles: 414413389 heartbeat IPC: 0.125731 cumulative IPC: 0.117614 (Simulation time: 62 hr 28 min 39 sec) 
 Total Blocks : 262144 Invalid Blocks : 0
Heartbeat CPU 6 instructions: 240000001 cycles: 414534649 heartbeat IPC: 0.125765 cumulative IPC: 0.117557 (Simulation time: 62 hr 29 min 7 sec) 
 Total Blocks : 262144 Invalid Blocks : 0
Heartbeat CPU 5 instructions: 240000003 cycles: 414951237 heartbeat IPC: 0.125344 cumulative IPC: 0.117416 (Simulation time: 62 hr 30 min 54 sec) 
 Total Blocks : 262144 Invalid Blocks : 0
Heartbeat CPU 2 instructions: 240000003 cycles: 415206195 heartbeat IPC: 0.125804 cumulative IPC: 0.117335 (Simulation time: 62 hr 31 min 58 sec) 
 Total Blocks : 262144 Invalid Blocks : 0
Heartbeat CPU 4 instructions: 240000003 cycles: 415752603 heartbeat IPC: 0.124723 cumulative IPC: 0.117141 (Simulation time: 62 hr 34 min 13 sec) 
 Total Blocks : 262144 Invalid Blocks : 0
Heartbeat CPU 7 instructions: 240000001 cycles: 416106093 heartbeat IPC: 0.125101 cumulative IPC: 0.117017 (Simulation time: 62 hr 35 min 44 sec) 
 Total Blocks : 262144 Invalid Blocks : 0
Heartbeat CPU 1 instructions: 240000003 cycles: 417238243 heartbeat IPC: 0.12551 cumulative IPC: 0.11664 (Simulation time: 62 hr 40 min 31 sec) 
 Total Blocks : 262144 Invalid Blocks : 0
Heartbeat CPU 3 instructions: 240000003 cycles: 418141798 heartbeat IPC: 0.125181 cumulative IPC: 0.116331 (Simulation time: 62 hr 44 min 26 sec) 
 Total Blocks : 262144 Invalid Blocks : 0
Heartbeat CPU 0 instructions: 250000003 cycles: 493780276 heartbeat IPC: 0.125997 cumulative IPC: 0.1192 (Simulation time: 68 hr 15 min 34 sec) 
 Total Blocks : 262144 Invalid Blocks : 0
Heartbeat CPU 6 instructions: 250000003 cycles: 493947041 heartbeat IPC: 0.125925 cumulative IPC: 0.119141 (Simulation time: 68 hr 16 min 36 sec) 
 Total Blocks : 262144 Invalid Blocks : 0
Heartbeat CPU 5 instructions: 250000003 cycles: 494828799 heartbeat IPC: 0.125192 cumulative IPC: 0.118893 (Simulation time: 68 hr 22 min 17 sec) 
 Total Blocks : 262144 Invalid Blocks : 0
Heartbeat CPU 2 instructions: 250000000 cycles: 494965848 heartbeat IPC: 0.125377 cumulative IPC: 0.11886 (Simulation time: 68 hr 23 min 3 sec) 
 Total Blocks : 262144 Invalid Blocks : 0
Heartbeat CPU 4 instructions: 250000003 cycles: 495904397 heartbeat IPC: 0.124763 cumulative IPC: 0.11859 (Simulation time: 68 hr 29 min 3 sec) 
 Total Blocks : 262144 Invalid Blocks : 0
Heartbeat CPU 7 instructions: 250000003 cycles: 496292741 heartbeat IPC: 0.124709 cumulative IPC: 0.118479 (Simulation time: 68 hr 31 min 31 sec) 
 Total Blocks : 262144 Invalid Blocks : 0
Heartbeat CPU 1 instructions: 250000000 cycles: 496550217 heartbeat IPC: 0.126084 cumulative IPC: 0.118414 (Simulation time: 68 hr 33 min 9 sec) 
 Total Blocks : 262144 Invalid Blocks : 0
Heartbeat CPU 3 instructions: 250000003 cycles: 497745634 heartbeat IPC: 0.125622 cumulative IPC: 0.118077 (Simulation time: 68 hr 40 min 40 sec) 
 Total Blocks : 262144 Invalid Blocks : 0
Heartbeat CPU 0 instructions: 260000002 cycles: 573165015 heartbeat IPC: 0.125969 cumulative IPC: 0.120278 (Simulation time: 76 hr 49 min 31 sec) 
 Total Blocks : 262144 Invalid Blocks : 0
Heartbeat CPU 6 instructions: 260000002 cycles: 573541371 heartbeat IPC: 0.125637 cumulative IPC: 0.120177 (Simulation time: 76 hr 51 min 59 sec) 
 Total Blocks : 262144 Invalid Blocks : 0
Heartbeat CPU 5 instructions: 260000002 cycles: 574410547 heartbeat IPC: 0.125657 cumulative IPC: 0.11997 (Simulation time: 76 hr 57 min 33 sec) 
 Total Blocks : 262144 Invalid Blocks : 0
Heartbeat CPU 2 instructions: 260000002 cycles: 574945085 heartbeat IPC: 0.125032 cumulative IPC: 0.119846 (Simulation time: 77 hr 0 min 50 sec) 
 Total Blocks : 262144 Invalid Blocks : 0
Heartbeat CPU 4 instructions: 260000002 cycles: 575210947 heartbeat IPC: 0.126093 cumulative IPC: 0.119778 (Simulation time: 77 hr 2 min 29 sec) 
 Total Blocks : 262144 Invalid Blocks : 0
Heartbeat CPU 1 instructions: 260000002 cycles: 576126954 heartbeat IPC: 0.125665 cumulative IPC: 0.119564 (Simulation time: 77 hr 8 min 20 sec) 
 Total Blocks : 262144 Invalid Blocks : 0
Heartbeat CPU 7 instructions: 260000002 cycles: 576269671 heartbeat IPC: 0.125036 cumulative IPC: 0.119524 (Simulation time: 77 hr 9 min 17 sec) 
 Total Blocks : 262144 Invalid Blocks : 0
Heartbeat CPU 3 instructions: 260000002 cycles: 577359991 heartbeat IPC: 0.125605 cumulative IPC: 0.119269 (Simulation time: 77 hr 16 min 13 sec) 
 Total Blocks : 262144 Invalid Blocks : 0
Heartbeat CPU 0 instructions: 270000000 cycles: 649525503 heartbeat IPC: 0.130958 cumulative IPC: 0.121695 (Simulation time: 84 hr 1 min 54 sec) 
 Total Blocks : 262144 Invalid Blocks : 0
Heartbeat CPU 6 instructions: 270000000 cycles: 649875980 heartbeat IPC: 0.131002 cumulative IPC: 0.121612 (Simulation time: 84 hr 3 min 33 sec) 
 Total Blocks : 262144 Invalid Blocks : 0
Heartbeat CPU 5 instructions: 270000000 cycles: 650509267 heartbeat IPC: 0.131408 cumulative IPC: 0.12148 (Simulation time: 84 hr 6 min 37 sec) 
 Total Blocks : 262144 Invalid Blocks : 0
Heartbeat CPU 2 instructions: 270000000 cycles: 651344019 heartbeat IPC: 0.130892 cumulative IPC: 0.121309 (Simulation time: 84 hr 10 min 29 sec) 
 Total Blocks : 262144 Invalid Blocks : 0
Heartbeat CPU 4 instructions: 270000000 cycles: 651517527 heartbeat IPC: 0.13105 cumulative IPC: 0.121269 (Simulation time: 84 hr 11 min 18 sec) 
 Total Blocks : 262144 Invalid Blocks : 0
Heartbeat CPU 1 instructions: 270000000 cycles: 652488390 heartbeat IPC: 0.130956 cumulative IPC: 0.121069 (Simulation time: 84 hr 15 min 53 sec) 
 Total Blocks : 262144 Invalid Blocks : 0
Heartbeat CPU 7 instructions: 270000000 cycles: 653269983 heartbeat IPC: 0.12987 cumulative IPC: 0.1209 (Simulation time: 84 hr 19 min 28 sec) 
 Total Blocks : 262144 Invalid Blocks : 0
Heartbeat CPU 3 instructions: 270000000 cycles: 653468754 heartbeat IPC: 0.131391 cumulative IPC: 0.120862 (Simulation time: 84 hr 20 min 23 sec) 
 Total Blocks : 262144 Invalid Blocks : 0
Heartbeat CPU 0 instructions: 280000002 cycles: 725882050 heartbeat IPC: 0.130965 cumulative IPC: 0.122782 (Simulation time: 90 hr 4 min 24 sec) 
 Total Blocks : 262144 Invalid Blocks : 0
Heartbeat CPU 6 instructions: 280000002 cycles: 726338561 heartbeat IPC: 0.130783 cumulative IPC: 0.122688 (Simulation time: 90 hr 6 min 31 sec) 
 Total Blocks : 262144 Invalid Blocks : 0
Heartbeat CPU 5 instructions: 280000002 cycles: 727104926 heartbeat IPC: 0.130556 cumulative IPC: 0.122545 (Simulation time: 90 hr 10 min 0 sec) 
 Total Blocks : 262144 Invalid Blocks : 0
Heartbeat CPU 4 instructions: 280000002 cycles: 727789157 heartbeat IPC: 0.13111 cumulative IPC: 0.122417 (Simulation time: 90 hr 13 min 13 sec) 
 Total Blocks : 262144 Invalid Blocks : 0
Heartbeat CPU 2 instructions: 280000002 cycles: 728224583 heartbeat IPC: 0.130072 cumulative IPC: 0.122339 (Simulation time: 90 hr 15 min 13 sec) 
 Total Blocks : 262144 Invalid Blocks : 0
Heartbeat CPU 1 instructions: 280000002 cycles: 728846878 heartbeat IPC: 0.130961 cumulative IPC: 0.122223 (Simulation time: 90 hr 18 min 5 sec) 
 Total Blocks : 262144 Invalid Blocks : 0
Heartbeat CPU 3 instructions: 280000002 cycles: 729775425 heartbeat IPC: 0.13105 cumulative IPC: 0.122048 (Simulation time: 90 hr 22 min 31 sec) 
 Total Blocks : 262144 Invalid Blocks : 0
Heartbeat CPU 7 instructions: 280000002 cycles: 730486229 heartbeat IPC: 0.129506 cumulative IPC: 0.121913 (Simulation time: 90 hr 25 min 59 sec) 
 Total Blocks : 262144 Invalid Blocks : 0
Heartbeat CPU 0 instructions: 290000002 cycles: 803564071 heartbeat IPC: 0.12873 cumulative IPC: 0.123415 (Simulation time: 96 hr 24 min 46 sec) 
 Total Blocks : 262144 Invalid Blocks : 0
Heartbeat CPU 6 instructions: 290000002 cycles: 804158936 heartbeat IPC: 0.128501 cumulative IPC: 0.123308 (Simulation time: 96 hr 27 min 38 sec) 
 Total Blocks : 262144 Invalid Blocks : 0
Heartbeat CPU 5 instructions: 290000002 cycles: 805365903 heartbeat IPC: 0.127778 cumulative IPC: 0.123105 (Simulation time: 96 hr 33 min 24 sec) 
 Total Blocks : 262144 Invalid Blocks : 0
Heartbeat CPU 4 instructions: 290000002 cycles: 805505922 heartbeat IPC: 0.128672 cumulative IPC: 0.123082 (Simulation time: 96 hr 34 min 8 sec) 
 Total Blocks : 262144 Invalid Blocks : 0
Heartbeat CPU 2 instructions: 290000002 cycles: 806857550 heartbeat IPC: 0.127173 cumulative IPC: 0.122858 (Simulation time: 96 hr 40 min 52 sec) 
 Total Blocks : 262144 Invalid Blocks : 0
Heartbeat CPU 1 instructions: 290000002 cycles: 806896887 heartbeat IPC: 0.128123 cumulative IPC: 0.122851 (Simulation time: 96 hr 41 min 3 sec) 
 Total Blocks : 262144 Invalid Blocks : 0
Heartbeat CPU 3 instructions: 290000002 cycles: 807515633 heartbeat IPC: 0.128634 cumulative IPC: 0.122746 (Simulation time: 96 hr 44 min 8 sec) 
 Total Blocks : 262144 Invalid Blocks : 0
Heartbeat CPU 7 instructions: 290000002 cycles: 808500016 heartbeat IPC: 0.128182 cumulative IPC: 0.122579 (Simulation time: 96 hr 49 min 2 sec) 
 Total Blocks : 262144 Invalid Blocks : 0
Heartbeat CPU 0 instructions: 300000002 cycles: 883347597 heartbeat IPC: 0.125339 cumulative IPC: 0.123605 (Simulation time: 103 hr 7 min 59 sec) 
 Total Blocks : 262144 Invalid Blocks : 0
Heartbeat CPU 6 instructions: 300000000 cycles: 884006753 heartbeat IPC: 0.125238 cumulative IPC: 0.123498 (Simulation time: 103 hr 11 min 18 sec) 
 Total Blocks : 262144 Invalid Blocks : 0
Heartbeat CPU 4 instructions: 300000001 cycles: 885170892 heartbeat IPC: 0.125526 cumulative IPC: 0.123322 (Simulation time: 103 hr 17 min 11 sec) 
 Total Blocks : 262144 Invalid Blocks : 0
Heartbeat CPU 5 instructions: 300000000 cycles: 885659715 heartbeat IPC: 0.124543 cumulative IPC: 0.123248 (Simulation time: 103 hr 19 min 45 sec) 
 Total Blocks : 262144 Invalid Blocks : 0
Heartbeat CPU 1 instructions: 300000001 cycles: 886635975 heartbeat IPC: 0.125409 cumulative IPC: 0.123102 (Simulation time: 103 hr 24 min 40 sec) 
 Total Blocks : 262144 Invalid Blocks : 0
Heartbeat CPU 2 instructions: 300000002 cycles: 887256284 heartbeat IPC: 0.12438 cumulative IPC: 0.123008 (Simulation time: 103 hr 27 min 54 sec) 
 Total Blocks : 262144 Invalid Blocks : 0
Heartbeat CPU 3 instructions: 300000002 cycles: 887714539 heartbeat IPC: 0.12469 cumulative IPC: 0.122938 (Simulation time: 103 hr 30 min 13 sec) 
 Total Blocks : 262144 Invalid Blocks : 0
Heartbeat CPU 7 instructions: 300000002 cycles: 888786480 heartbeat IPC: 0.124554 cumulative IPC: 0.122774 (Simulation time: 103 hr 35 min 33 sec) 
 Total Blocks : 262144 Invalid Blocks : 0
Heartbeat CPU 0 instructions: 310000001 cycles: 965812066 heartbeat IPC: 0.121264 cumulative IPC: 0.123388 (Simulation time: 110 hr 15 min 5 sec) 
 Total Blocks : 262144 Invalid Blocks : 0
Heartbeat CPU 6 instructions: 310000001 cycles: 966364072 heartbeat IPC: 0.121422 cumulative IPC: 0.123306 (Simulation time: 110 hr 17 min 52 sec) 
 Total Blocks : 262144 Invalid Blocks : 0
Heartbeat CPU 4 instructions: 310000001 cycles: 967406934 heartbeat IPC: 0.121601 cumulative IPC: 0.123164 (Simulation time: 110 hr 23 min 15 sec) 
 Total Blocks : 262144 Invalid Blocks : 0
Heartbeat CPU 5 instructions: 310000001 cycles: 967793619 heartbeat IPC: 0.121752 cumulative IPC: 0.12311 (Simulation time: 110 hr 25 min 19 sec) 
 Total Blocks : 262144 Invalid Blocks : 0
Heartbeat CPU 1 instructions: 310000002 cycles: 968818420 heartbeat IPC: 0.12168 cumulative IPC: 0.122972 (Simulation time: 110 hr 30 min 39 sec) 
 Total Blocks : 262144 Invalid Blocks : 0
Heartbeat CPU 3 instructions: 310000002 cycles: 969881351 heartbeat IPC: 0.121704 cumulative IPC: 0.122825 (Simulation time: 110 hr 36 min 15 sec) 
 Total Blocks : 262144 Invalid Blocks : 0
Heartbeat CPU 2 instructions: 310000001 cycles: 970195469 heartbeat IPC: 0.12057 cumulative IPC: 0.122783 (Simulation time: 110 hr 37 min 49 sec) 
 Total Blocks : 262144 Invalid Blocks : 0
Heartbeat CPU 7 instructions: 310000003 cycles: 971472842 heartbeat IPC: 0.120939 cumulative IPC: 0.122604 (Simulation time: 110 hr 44 min 22 sec) 
 Total Blocks : 262144 Invalid Blocks : 0
Heartbeat CPU 0 instructions: 320000001 cycles: 1049215407 heartbeat IPC: 0.119899 cumulative IPC: 0.12309 (Simulation time: 117 hr 43 min 46 sec) 
 Total Blocks : 262144 Invalid Blocks : 0
Heartbeat CPU 6 instructions: 320000001 cycles: 1050449047 heartbeat IPC: 0.118927 cumulative IPC: 0.122929 (Simulation time: 117 hr 50 min 32 sec) 
 Total Blocks : 262144 Invalid Blocks : 0
Heartbeat CPU 4 instructions: 320000001 cycles: 1050649506 heartbeat IPC: 0.120131 cumulative IPC: 0.122905 (Simulation time: 117 hr 51 min 42 sec) 
 Total Blocks : 262144 Invalid Blocks : 0
Heartbeat CPU 5 instructions: 320000001 cycles: 1050971443 heartbeat IPC: 0.120224 cumulative IPC: 0.122864 (Simulation time: 117 hr 53 min 27 sec) 
 Total Blocks : 262144 Invalid Blocks : 0
Heartbeat CPU 1 instructions: 320000001 cycles: 1052209777 heartbeat IPC: 0.119916 cumulative IPC: 0.122711 (Simulation time: 118 hr 0 min 21 sec) 
 Total Blocks : 262144 Invalid Blocks : 0
Heartbeat CPU 3 instructions: 320000001 cycles: 1053167952 heartbeat IPC: 0.120067 cumulative IPC: 0.12259 (Simulation time: 118 hr 5 min 29 sec) 
 Total Blocks : 262144 Invalid Blocks : 0
Heartbeat CPU 2 instructions: 320000001 cycles: 1053680333 heartbeat IPC: 0.119782 cumulative IPC: 0.122527 (Simulation time: 118 hr 8 min 17 sec) 
 Total Blocks : 262144 Invalid Blocks : 0
Heartbeat CPU 7 instructions: 320000001 cycles: 1055319432 heartbeat IPC: 0.119265 cumulative IPC: 0.122319 (Simulation time: 118 hr 17 min 27 sec) 
 Total Blocks : 262144 Invalid Blocks : 0
Heartbeat CPU 0 instructions: 330000000 cycles: 1132201893 heartbeat IPC: 0.120502 cumulative IPC: 0.122887 (Simulation time: 125 hr 24 min 13 sec) 
 Total Blocks : 262144 Invalid Blocks : 0
Heartbeat CPU 4 instructions: 330000000 cycles: 1133472071 heartbeat IPC: 0.12074 cumulative IPC: 0.122736 (Simulation time: 125 hr 31 min 9 sec) 
 Total Blocks : 262144 Invalid Blocks : 0
Heartbeat CPU 6 instructions: 330000000 cycles: 1133509551 heartbeat IPC: 0.120394 cumulative IPC: 0.12273 (Simulation time: 125 hr 31 min 20 sec) 
 Total Blocks : 262144 Invalid Blocks : 0
Heartbeat CPU 5 instructions: 330000000 cycles: 1133817702 heartbeat IPC: 0.120706 cumulative IPC: 0.122696 (Simulation time: 125 hr 33 min 7 sec) 
 Total Blocks : 262144 Invalid Blocks : 0
Heartbeat CPU 1 instructions: 330000000 cycles: 1135061104 heartbeat IPC: 0.120698 cumulative IPC: 0.122554 (Simulation time: 125 hr 39 min 55 sec) 
 Total Blocks : 262144 Invalid Blocks : 0
Heartbeat CPU 3 instructions: 330000000 cycles: 1135718205 heartbeat IPC: 0.121138 cumulative IPC: 0.122477 (Simulation time: 125 hr 43 min 44 sec) 
 Total Blocks : 262144 Invalid Blocks : 0
Heartbeat CPU 2 instructions: 330000000 cycles: 1136340917 heartbeat IPC: 0.120977 cumulative IPC: 0.122406 (Simulation time: 125 hr 47 min 5 sec) 
 Total Blocks : 262144 Invalid Blocks : 0
Heartbeat CPU 7 instructions: 330000000 cycles: 1138154902 heartbeat IPC: 0.120721 cumulative IPC: 0.122195 (Simulation time: 125 hr 57 min 2 sec) 
 Total Blocks : 262144 Invalid Blocks : 0
Heartbeat CPU 0 instructions: 340000002 cycles: 1211893190 heartbeat IPC: 0.125484 cumulative IPC: 0.123069 (Simulation time: 132 hr 56 min 59 sec) 
 Total Blocks : 262144 Invalid Blocks : 0
Heartbeat CPU 4 instructions: 340000002 cycles: 1213020360 heartbeat IPC: 0.12571 cumulative IPC: 0.122944 (Simulation time: 133 hr 3 min 14 sec) 
 Total Blocks : 262144 Invalid Blocks : 0
Heartbeat CPU 5 instructions: 340000002 cycles: 1213258029 heartbeat IPC: 0.125881 cumulative IPC: 0.122918 (Simulation time: 133 hr 4 min 33 sec) 
 Total Blocks : 262144 Invalid Blocks : 0
Heartbeat CPU 6 instructions: 340000002 cycles: 1213430842 heartbeat IPC: 0.125123 cumulative IPC: 0.122898 (Simulation time: 133 hr 5 min 30 sec) 
 Total Blocks : 262144 Invalid Blocks : 0
Heartbeat CPU 1 instructions: 340000002 cycles: 1215066512 heartbeat IPC: 0.124992 cumulative IPC: 0.122725 (Simulation time: 133 hr 15 min 1 sec) 
 Total Blocks : 262144 Invalid Blocks : 0
Heartbeat CPU 3 instructions: 340000002 cycles: 1215510128 heartbeat IPC: 0.125326 cumulative IPC: 0.122676 (Simulation time: 133 hr 17 min 34 sec) 
 Total Blocks : 262144 Invalid Blocks : 0
Heartbeat CPU 2 instructions: 340000002 cycles: 1216033803 heartbeat IPC: 0.125482 cumulative IPC: 0.122621 (Simulation time: 133 hr 20 min 48 sec) 
 Total Blocks : 262144 Invalid Blocks : 0
Heartbeat CPU 7 instructions: 340000002 cycles: 1217900174 heartbeat IPC: 0.125399 cumulative IPC: 0.122418 (Simulation time: 133 hr 31 min 48 sec) 
 Total Blocks : 262144 Invalid Blocks : 0
Heartbeat CPU 0 instructions: 350000000 cycles: 1293899129 heartbeat IPC: 0.121942 cumulative IPC: 0.122993 (Simulation time: 140 hr 54 min 43 sec) 
 Total Blocks : 262144 Invalid Blocks : 0
Heartbeat CPU 5 instructions: 350000000 cycles: 1294616192 heartbeat IPC: 0.122913 cumulative IPC: 0.122917 (Simulation time: 140 hr 59 min 0 sec) 
 Total Blocks : 262144 Invalid Blocks : 0
Heartbeat CPU 4 instructions: 350000000 cycles: 1294748533 heartbeat IPC: 0.122357 cumulative IPC: 0.122904 (Simulation time: 140 hr 59 min 48 sec) 
 Total Blocks : 262144 Invalid Blocks : 0
Heartbeat CPU 6 instructions: 350000000 cycles: 1295139901 heartbeat IPC: 0.122385 cumulative IPC: 0.122864 (Simulation time: 141 hr 2 min 5 sec) 
 Total Blocks : 262144 Invalid Blocks : 0
Heartbeat CPU 1 instructions: 350000000 cycles: 1296734639 heartbeat IPC: 0.122447 cumulative IPC: 0.122706 (Simulation time: 141 hr 11 min 32 sec) 
 Total Blocks : 262144 Invalid Blocks : 0
Heartbeat CPU 3 instructions: 350000000 cycles: 1296779236 heartbeat IPC: 0.123048 cumulative IPC: 0.122701 (Simulation time: 141 hr 11 min 47 sec) 
 Total Blocks : 262144 Invalid Blocks : 0
Heartbeat CPU 2 instructions: 350000000 cycles: 1297257157 heartbeat IPC: 0.123117 cumulative IPC: 0.122654 (Simulation time: 141 hr 14 min 37 sec) 
 Total Blocks : 262144 Invalid Blocks : 0
Heartbeat CPU 7 instructions: 350000000 cycles: 1299500461 heartbeat IPC: 0.122549 cumulative IPC: 0.122427 (Simulation time: 141 hr 28 min 3 sec) 
 Total Blocks : 262144 Invalid Blocks : 0
Heartbeat CPU 5 instructions: 360000002 cycles: 1376096466 heartbeat IPC: 0.122729 cumulative IPC: 0.122906 (Simulation time: 149 hr 8 min 5 sec) 
 Total Blocks : 262144 Invalid Blocks : 0
Heartbeat CPU 0 instructions: 360000002 cycles: 1376140502 heartbeat IPC: 0.121593 cumulative IPC: 0.122905 (Simulation time: 149 hr 8 min 21 sec) 
 Total Blocks : 262144 Invalid Blocks : 0
Heartbeat CPU 4 instructions: 360000002 cycles: 1376544378 heartbeat IPC: 0.122256 cumulative IPC: 0.122864 (Simulation time: 149 hr 10 min 51 sec) 
 Total Blocks : 262144 Invalid Blocks : 0
Heartbeat CPU 6 instructions: 360000002 cycles: 1376624854 heartbeat IPC: 0.122722 cumulative IPC: 0.122855 (Simulation time: 149 hr 11 min 22 sec) 
 Total Blocks : 262144 Invalid Blocks : 0
Heartbeat CPU 1 instructions: 360000002 cycles: 1377969617 heartbeat IPC: 0.1231 cumulative IPC: 0.122731 (Simulation time: 149 hr 19 min 32 sec) 
 Total Blocks : 262144 Invalid Blocks : 0
Heartbeat CPU 2 instructions: 360000002 cycles: 1378790277 heartbeat IPC: 0.12265 cumulative IPC: 0.122654 (Simulation time: 149 hr 24 min 39 sec) 
 Total Blocks : 262144 Invalid Blocks : 0
Heartbeat CPU 3 instructions: 360000002 cycles: 1378792631 heartbeat IPC: 0.121931 cumulative IPC: 0.122653 (Simulation time: 149 hr 24 min 40 sec) 
 Total Blocks : 262144 Invalid Blocks : 0
Heartbeat CPU 7 instructions: 360000002 cycles: 1380719843 heartbeat IPC: 0.123123 cumulative IPC: 0.12247 (Simulation time: 149 hr 36 min 23 sec) 
 Total Blocks : 262144 Invalid Blocks : 0
Heartbeat CPU 5 instructions: 370000003 cycles: 1456215988 heartbeat IPC: 0.124814 cumulative IPC: 0.123016 (Simulation time: 157 hr 18 min 17 sec) 
 Total Blocks : 262144 Invalid Blocks : 0
Heartbeat CPU 0 instructions: 370000003 cycles: 1456960028 heartbeat IPC: 0.123732 cumulative IPC: 0.122953 (Simulation time: 157 hr 22 min 55 sec) 
 Total Blocks : 262144 Invalid Blocks : 0
Heartbeat CPU 6 instructions: 370000003 cycles: 1456996248 heartbeat IPC: 0.124422 cumulative IPC: 0.122946 (Simulation time: 157 hr 23 min 7 sec) 
 Total Blocks : 262144 Invalid Blocks : 0
Heartbeat CPU 4 instructions: 370000003 cycles: 1457176168 heartbeat IPC: 0.124021 cumulative IPC: 0.122931 (Simulation time: 157 hr 24 min 12 sec) 
 Total Blocks : 262144 Invalid Blocks : 0
Heartbeat CPU 1 instructions: 370000003 cycles: 1458479521 heartbeat IPC: 0.124208 cumulative IPC: 0.122817 (Simulation time: 157 hr 32 min 23 sec) 
 Total Blocks : 262144 Invalid Blocks : 0
Heartbeat CPU 3 instructions: 370000003 cycles: 1459097222 heartbeat IPC: 0.124526 cumulative IPC: 0.122761 (Simulation time: 157 hr 36 min 14 sec) 
 Total Blocks : 262144 Invalid Blocks : 0
Heartbeat CPU 2 instructions: 370000003 cycles: 1459150169 heartbeat IPC: 0.12444 cumulative IPC: 0.122757 (Simulation time: 157 hr 36 min 36 sec) 
 Total Blocks : 262144 Invalid Blocks : 0
Heartbeat CPU 7 instructions: 370000003 cycles: 1461090973 heartbeat IPC: 0.124423 cumulative IPC: 0.122583 (Simulation time: 157 hr 48 min 49 sec) 
 Total Blocks : 262144 Invalid Blocks : 0
Heartbeat CPU 5 instructions: 380000003 cycles: 1536307694 heartbeat IPC: 0.124857 cumulative IPC: 0.123117 (Simulation time: 165 hr 39 min 59 sec) 
 Total Blocks : 262144 Invalid Blocks : 0
Heartbeat CPU 6 instructions: 380000003 cycles: 1537108683 heartbeat IPC: 0.124825 cumulative IPC: 0.123049 (Simulation time: 165 hr 45 min 8 sec) 
 Total Blocks : 262144 Invalid Blocks : 0
Heartbeat CPU 0 instructions: 380000003 cycles: 1537565034 heartbeat IPC: 0.124062 cumulative IPC: 0.123014 (Simulation time: 165 hr 48 min 6 sec) 
 Total Blocks : 262144 Invalid Blocks : 0
Heartbeat CPU 4 instructions: 380000003 cycles: 1538091133 heartbeat IPC: 0.123587 cumulative IPC: 0.122967 (Simulation time: 165 hr 51 min 29 sec) 
 Total Blocks : 262144 Invalid Blocks : 0
Heartbeat CPU 1 instructions: 380000003 cycles: 1538321067 heartbeat IPC: 0.125248 cumulative IPC: 0.122949 (Simulation time: 165 hr 52 min 57 sec) 
 Total Blocks : 262144 Invalid Blocks : 0
Heartbeat CPU 2 instructions: 380000003 cycles: 1538981435 heartbeat IPC: 0.125264 cumulative IPC: 0.122894 (Simulation time: 165 hr 57 min 1 sec) 
 Total Blocks : 262144 Invalid Blocks : 0
Heartbeat CPU 3 instructions: 380000003 cycles: 1539086895 heartbeat IPC: 0.125016 cumulative IPC: 0.122884 (Simulation time: 165 hr 57 min 42 sec) 
 Total Blocks : 262144 Invalid Blocks : 0
Heartbeat CPU 7 instructions: 380000000 cycles: 1541615504 heartbeat IPC: 0.124186 cumulative IPC: 0.122671 (Simulation time: 166 hr 13 min 42 sec) 
 Total Blocks : 262144 Invalid Blocks : 0
Heartbeat CPU 5 instructions: 390000000 cycles: 1614494821 heartbeat IPC: 0.127898 cumulative IPC: 0.12336 (Simulation time: 174 hr 1 min 55 sec) 
 Total Blocks : 262144 Invalid Blocks : 0
Heartbeat CPU 6 instructions: 390000000 cycles: 1614865394 heartbeat IPC: 0.128606 cumulative IPC: 0.12333 (Simulation time: 174 hr 4 min 17 sec) 
 Total Blocks : 262144 Invalid Blocks : 0
Heartbeat CPU 0 instructions: 390000000 cycles: 1615959910 heartbeat IPC: 0.127559 cumulative IPC: 0.123245 (Simulation time: 174 hr 11 min 12 sec) 
 Total Blocks : 262144 Invalid Blocks : 0
Heartbeat CPU 4 instructions: 390000000 cycles: 1616415162 heartbeat IPC: 0.127675 cumulative IPC: 0.123206 (Simulation time: 174 hr 14 min 9 sec) 
 Total Blocks : 262144 Invalid Blocks : 0
Heartbeat CPU 2 instructions: 390000000 cycles: 1616716747 heartbeat IPC: 0.128642 cumulative IPC: 0.123184 (Simulation time: 174 hr 16 min 10 sec) 
 Total Blocks : 262144 Invalid Blocks : 0
Heartbeat CPU 1 instructions: 390000000 cycles: 1616757953 heartbeat IPC: 0.127491 cumulative IPC: 0.12318 (Simulation time: 174 hr 16 min 27 sec) 
 Total Blocks : 262144 Invalid Blocks : 0
Heartbeat CPU 3 instructions: 390000000 cycles: 1616856055 heartbeat IPC: 0.128586 cumulative IPC: 0.123172 (Simulation time: 174 hr 17 min 4 sec) 
 Total Blocks : 262144 Invalid Blocks : 0
Heartbeat CPU 7 instructions: 390000000 cycles: 1620146844 heartbeat IPC: 0.127338 cumulative IPC: 0.122908 (Simulation time: 174 hr 38 min 37 sec) 
 Total Blocks : 262144 Invalid Blocks : 0
Heartbeat CPU 5 instructions: 400000003 cycles: 1696207316 heartbeat IPC: 0.12238 cumulative IPC: 0.12331 (Simulation time: 183 hr 1 min 54 sec) 
 Total Blocks : 262144 Invalid Blocks : 0
Finished CPU 5 instructions: 200000000 cycles: 1621929584 cumulative IPC: 0.12331 (Simulation time: 183 hr 2 min 12 sec) 
Heartbeat CPU 6 instructions: 400000003 cycles: 1696296931 heartbeat IPC: 0.122803 cumulative IPC: 0.123303 (Simulation time: 183 hr 2 min 32 sec) 
 Total Blocks : 262144 Invalid Blocks : 0
Finished CPU 6 instructions: 200000001 cycles: 1622038882 cumulative IPC: 0.123302 (Simulation time: 183 hr 3 min 3 sec) 
Heartbeat CPU 0 instructions: 400000003 cycles: 1697681074 heartbeat IPC: 0.122367 cumulative IPC: 0.123201 (Simulation time: 183 hr 11 min 42 sec) 
 Total Blocks : 262144 Invalid Blocks : 0
Finished CPU 0 instructions: 200000003 cycles: 1623362324 cumulative IPC: 0.123201 (Simulation time: 183 hr 11 min 42 sec) 
Heartbeat CPU 4 instructions: 400000003 cycles: 1697859444 heartbeat IPC: 0.122783 cumulative IPC: 0.123185 (Simulation time: 183 hr 12 min 50 sec) 
 Total Blocks : 262144 Invalid Blocks : 0
Finished CPU 4 instructions: 200000000 cycles: 1623574487 cumulative IPC: 0.123185 (Simulation time: 183 hr 13 min 5 sec) 
Heartbeat CPU 2 instructions: 400000003 cycles: 1698149524 heartbeat IPC: 0.122801 cumulative IPC: 0.123164 (Simulation time: 183 hr 14 min 47 sec) 
 Total Blocks : 262144 Invalid Blocks : 0
Finished CPU 2 instructions: 200000000 cycles: 1623861552 cumulative IPC: 0.123163 (Simulation time: 183 hr 15 min 1 sec) 
Heartbeat CPU 1 instructions: 400000003 cycles: 1698319658 heartbeat IPC: 0.122607 cumulative IPC: 0.123152 (Simulation time: 183 hr 15 min 54 sec) 
 Total Blocks : 262144 Invalid Blocks : 0
Finished CPU 1 instructions: 200000001 cycles: 1624030311 cumulative IPC: 0.12315 (Simulation time: 183 hr 16 min 7 sec) 
Heartbeat CPU 3 instructions: 400000002 cycles: 1698379812 heartbeat IPC: 0.122664 cumulative IPC: 0.123146 (Simulation time: 183 hr 16 min 17 sec) 
 Total Blocks : 262144 Invalid Blocks : 0
Finished CPU 3 instructions: 200000000 cycles: 1624096483 cumulative IPC: 0.123145 (Simulation time: 183 hr 16 min 32 sec) 
Heartbeat CPU 7 instructions: 400000003 cycles: 1701897994 heartbeat IPC: 0.122322 cumulative IPC: 0.122879 (Simulation time: 183 hr 39 min 50 sec) 
 Total Blocks : 262144 Invalid Blocks : 0
Finished CPU 7 instructions: 200000000 cycles: 1627641136 cumulative IPC: 0.122877 (Simulation time: 183 hr 40 min 15 sec) 

CPU 0 Branch Prediction Accuracy: 94.9055% MPKI: 0.914384 Average ROB Occupancy at Mispredict: 273.332

CPU 1 Branch Prediction Accuracy: 94.9058% MPKI: 0.914322 Average ROB Occupancy at Mispredict: 273.311

CPU 2 Branch Prediction Accuracy: 94.9058% MPKI: 0.914333 Average ROB Occupancy at Mispredict: 273.349

CPU 3 Branch Prediction Accuracy: 94.9059% MPKI: 0.914295 Average ROB Occupancy at Mispredict: 273.354

CPU 4 Branch Prediction Accuracy: 94.9056% MPKI: 0.914378 Average ROB Occupancy at Mispredict: 273.288

CPU 5 Branch Prediction Accuracy: 94.9048% MPKI: 0.914573 Average ROB Occupancy at Mispredict: 273.356

CPU 6 Branch Prediction Accuracy: 94.9049% MPKI: 0.914535 Average ROB Occupancy at Mispredict: 273.338

CPU 7 Branch Prediction Accuracy: 94.9077% MPKI: 0.913963 Average ROB Occupancy at Mispredict: 273.348

ChampSim completed all CPUs

Total Simulation Statistics (not including warmup)

CPU 0 cumulative IPC: 0.123199 instructions: 200524030 cycles: 1627641135
ITLB TOTAL     ACCESS: 30747997  HIT: 30747997  MISS:     0  HIT %:   100  MISS %:     0  AVERAGE MISS PENALTY: 0
ITLB LOAD      ACCESS: 30747997  HIT: 30747997  MISS:     0  HIT %:   100  MISS %:     0  AVERAGE MISS PENALTY: 0
ITLB RFO       ACCESS:     0  HIT:     0  MISS:     0  HIT %:     0  MISS %:     0  AVERAGE MISS PENALTY: 0
ITLB PREFETCH  ACCESS:     0  HIT:     0  MISS:     0  HIT %:     0  MISS %:     0  AVERAGE MISS PENALTY: 0
ITLB WRITEBACK ACCESS:     0  HIT:     0  MISS:     0  HIT %:     0  MISS %:     0  AVERAGE MISS PENALTY: 0

DTLB TOTAL     ACCESS: 40460042  HIT: 40185346  MISS: 274696  HIT %: 99.3211  MISS %: 0.678932  AVERAGE MISS PENALTY: 87.395
DTLB LOAD      ACCESS: 19586883  HIT: 19549608  MISS: 37275  HIT %: 99.8097  MISS %: 0.190306  AVERAGE MISS PENALTY: 109.002
DTLB RFO       ACCESS: 20873159  HIT: 20635738  MISS: 237421  HIT %: 98.8626  MISS %: 1.13745  AVERAGE MISS PENALTY: 84.0026
DTLB PREFETCH  ACCESS:     0  HIT:     0  MISS:     0  HIT %:     0  MISS %:     0  AVERAGE MISS PENALTY: 0
DTLB WRITEBACK ACCESS:     0  HIT:     0  MISS:     0  HIT %:     0  MISS %:     0  AVERAGE MISS PENALTY: 0

STLB TOTAL     ACCESS: 274696  HIT: 125643  MISS: 149053  HIT %: 45.7389  MISS %: 54.2611  AVERAGE MISS PENALTY: 100
STLB LOAD      ACCESS: 37275  HIT:     0  MISS: 37275  HIT %:     0  MISS %:   100  AVERAGE MISS PENALTY: 100
STLB RFO       ACCESS: 237421  HIT: 125643  MISS: 111778  HIT %: 52.9199  MISS %: 47.0801  AVERAGE MISS PENALTY: 100
STLB PREFETCH  ACCESS:     0  HIT:     0  MISS:     0  HIT %:     0  MISS %:     0  AVERAGE MISS PENALTY: 0
STLB WRITEBACK ACCESS:     0  HIT:     0  MISS:     0  HIT %:     0  MISS %:     0  AVERAGE MISS PENALTY: 0

L1D TOTAL     ACCESS: 58702044  HIT: 42955092  MISS: 15746952  HIT %: 73.1748  MISS %: 26.8252  AVERAGE MISS PENALTY: 3.3573e+07
L1D LOAD      ACCESS: 16535537  HIT: 14972401  MISS: 1563136  HIT %: 90.5468  MISS %: 9.45319  AVERAGE MISS PENALTY: 3.382e+08
L1D RFO       ACCESS: 34748721  HIT: 21397288  MISS: 13351433  HIT %: 61.5772  MISS %: 38.4228  AVERAGE MISS PENALTY: 1392.89
L1D PREFETCH  ACCESS: 7417786  HIT: 6585403  MISS: 832383  HIT %: 88.7786  MISS %: 11.2214  AVERAGE MISS PENALTY: 1165.97
L1D WRITEBACK ACCESS:     0  HIT:     0  MISS:     0  HIT %:     0  MISS %:     0  AVERAGE MISS PENALTY: 0

L1I TOTAL     ACCESS: 42457078  HIT: 42457078  MISS:     0  HIT %:   100  MISS %:     0  AVERAGE MISS PENALTY: 0
L1I LOAD      ACCESS: 42457078  HIT: 42457078  MISS:     0  HIT %:   100  MISS %:     0  AVERAGE MISS PENALTY: 0
L1I RFO       ACCESS:     0  HIT:     0  MISS:     0  HIT %:     0  MISS %:     0  AVERAGE MISS PENALTY: 0
L1I PREFETCH  ACCESS:     0  HIT:     0  MISS:     0  HIT %:     0  MISS %:     0  AVERAGE MISS PENALTY: 0
L1I WRITEBACK ACCESS:     0  HIT:     0  MISS:     0  HIT %:     0  MISS %:     0  AVERAGE MISS PENALTY: 0

L2C TOTAL     ACCESS: 29913666  HIT: 19438021  MISS: 10475645  HIT %: 64.9804  MISS %: 35.0196  AVERAGE MISS PENALTY: 8.53027e+07
L2C LOAD      ACCESS: 1554756  HIT: 272085  MISS: 1282671  HIT %: 17.5002  MISS %: 82.4998  AVERAGE MISS PENALTY: 6.96656e+08
L2C RFO       ACCESS: 13351431  HIT: 5263485  MISS: 8087946  HIT %: 39.4226  MISS %: 60.5774  AVERAGE MISS PENALTY: 2273.01
L2C PREFETCH  ACCESS: 1656051  HIT: 553135  MISS: 1102916  HIT %: 33.4008  MISS %: 66.5992  AVERAGE MISS PENALTY: 1823.74
L2C WRITEBACK ACCESS: 13351428  HIT: 13349316  MISS:  2112  HIT %: 99.9842  MISS %: 0.0158185  AVERAGE MISS PENALTY: 0


LLC0 TOTAL     ACCESS: 2319331  HIT: 892791  MISS: 1426540  HIT %: 38.4935  MISS %: 61.5065  AVERAGE MISS PENALTY: 2019.19
LLC0 LOAD      ACCESS: 66453  HIT:     0  MISS: 66453  HIT %:     0  MISS %:   100  AVERAGE MISS PENALTY: 2114.74
LLC0 RFO       ACCESS: 1010535  HIT: 113116  MISS: 897419  HIT %: 11.1937  MISS %: 88.8063  AVERAGE MISS PENALTY: 2481.95
LLC0 PREFETCH  ACCESS: 231557  HIT:     0  MISS: 231557  HIT %:     0  MISS %:   100  AVERAGE MISS PENALTY: 2213.61
LLC0 WRITEBACK ACCESS: 1010786  HIT: 779675  MISS: 231111  HIT %: 77.1355  MISS %: 22.8645  AVERAGE MISS PENALTY: 0

LLC1 TOTAL     ACCESS: 2319654  HIT: 891829  MISS: 1427825  HIT %: 38.4466  MISS %: 61.5534  AVERAGE MISS PENALTY: 2019.55
LLC1 LOAD      ACCESS: 51069  HIT:     9  MISS: 51060  HIT %: 0.0176232  MISS %: 99.9824  AVERAGE MISS PENALTY: 2104.6
LLC1 RFO       ACCESS: 1010654  HIT: 113061  MISS: 897593  HIT %: 11.1869  MISS %: 88.8131  AVERAGE MISS PENALTY: 2482.39
LLC1 PREFETCH  ACCESS: 247019  HIT:     0  MISS: 247019  HIT %:     0  MISS %:   100  AVERAGE MISS PENALTY: 2218.19
LLC1 WRITEBACK ACCESS: 1010912  HIT: 778759  MISS: 232153  HIT %: 77.0353  MISS %: 22.9647  AVERAGE MISS PENALTY: 0

LLC2 TOTAL     ACCESS: 2320421  HIT: 892258  MISS: 1428163  HIT %: 38.4524  MISS %: 61.5476  AVERAGE MISS PENALTY: 1992.99
LLC2 LOAD      ACCESS: 41352  HIT:    20  MISS: 41332  HIT %: 0.0483653  MISS %: 99.9516  AVERAGE MISS PENALTY: 2102.48
LLC2 RFO       ACCESS: 1010835  HIT: 113338  MISS: 897497  HIT %: 11.2123  MISS %: 88.7877  AVERAGE MISS PENALTY: 2417.62
LLC2 PREFETCH  ACCESS: 257250  HIT:   306  MISS: 256944  HIT %: 0.11895  MISS %: 99.881  AVERAGE MISS PENALTY: 2294.7
LLC2 WRITEBACK ACCESS: 1010984  HIT: 778594  MISS: 232390  HIT %: 77.0135  MISS %: 22.9865  AVERAGE MISS PENALTY: 0

LLC3 TOTAL     ACCESS: 2320439  HIT: 893603  MISS: 1426836  HIT %: 38.5101  MISS %: 61.4899  AVERAGE MISS PENALTY: 2050.29
LLC3 LOAD      ACCESS: 41130  HIT:     8  MISS: 41122  HIT %: 0.0194505  MISS %: 99.9805  AVERAGE MISS PENALTY: 2125.62
LLC3 RFO       ACCESS: 1010826  HIT: 113337  MISS: 897489  HIT %: 11.2123  MISS %: 88.7877  AVERAGE MISS PENALTY: 2503.24
LLC3 PREFETCH  ACCESS: 257476  HIT:   306  MISS: 257170  HIT %: 0.118846  MISS %: 99.8812  AVERAGE MISS PENALTY: 2299.59
LLC3 WRITEBACK ACCESS: 1011007  HIT: 779952  MISS: 231055  HIT %: 77.1461  MISS %: 22.8539  AVERAGE MISS PENALTY: 0

LLC4 TOTAL     ACCESS: 2320370  HIT: 893585  MISS: 1426785  HIT %: 38.5105  MISS %: 61.4895  AVERAGE MISS PENALTY: 2034.67
LLC4 LOAD      ACCESS: 39511  HIT:     0  MISS: 39511  HIT %:     0  MISS %:   100  AVERAGE MISS PENALTY: 2119.3
LLC4 RFO       ACCESS: 1011006  HIT: 113568  MISS: 897438  HIT %: 11.2332  MISS %: 88.7668  AVERAGE MISS PENALTY: 2499.68
LLC4 PREFETCH  ACCESS: 258613  HIT:    35  MISS: 258578  HIT %: 0.0135337  MISS %: 99.9865  AVERAGE MISS PENALTY: 2227.55
LLC4 WRITEBACK ACCESS: 1011240  HIT: 779982  MISS: 231258  HIT %: 77.1312  MISS %: 22.8688  AVERAGE MISS PENALTY: 0

LLC5 TOTAL     ACCESS: 2320281  HIT: 892886  MISS: 1427395  HIT %: 38.4818  MISS %: 61.5182  AVERAGE MISS PENALTY: 2026.05
LLC5 LOAD      ACCESS: 39897  HIT:     0  MISS: 39897  HIT %:     0  MISS %:   100  AVERAGE MISS PENALTY: 2098.94
LLC5 RFO       ACCESS: 1010957  HIT: 113489  MISS: 897468  HIT %: 11.2259  MISS %: 88.7741  AVERAGE MISS PENALTY: 2491.89
LLC5 PREFETCH  ACCESS: 258240  HIT:    39  MISS: 258201  HIT %: 0.0151022  MISS %: 99.9849  AVERAGE MISS PENALTY: 2214.71
LLC5 WRITEBACK ACCESS: 1011187  HIT: 779358  MISS: 231829  HIT %: 77.0736  MISS %: 22.9264  AVERAGE MISS PENALTY: 0

LLC6 TOTAL     ACCESS: 2319498  HIT: 892271  MISS: 1427227  HIT %: 38.4683  MISS %: 61.5317  AVERAGE MISS PENALTY: 2001.8
LLC6 LOAD      ACCESS: 40651  HIT:     0  MISS: 40651  HIT %:     0  MISS %:   100  AVERAGE MISS PENALTY: 2134.51
LLC6 RFO       ACCESS: 1010621  HIT: 113184  MISS: 897437  HIT %: 11.1995  MISS %: 88.8005  AVERAGE MISS PENALTY: 2431.56
LLC6 PREFETCH  ACCESS: 257359  HIT:     0  MISS: 257359  HIT %:     0  MISS %:   100  AVERAGE MISS PENALTY: 2285.07
LLC6 WRITEBACK ACCESS: 1010867  HIT: 779087  MISS: 231780  HIT %: 77.0712  MISS %: 22.9288  AVERAGE MISS PENALTY: 0

LLC7 TOTAL     ACCESS: 2319508  HIT: 891467  MISS: 1428041  HIT %: 38.4335  MISS %: 61.5665  AVERAGE MISS PENALTY: 1996.69
LLC7 LOAD      ACCESS: 40392  HIT:     0  MISS: 40392  HIT %:     0  MISS %:   100  AVERAGE MISS PENALTY: 2128.42
LLC7 RFO       ACCESS: 1010637  HIT: 113193  MISS: 897444  HIT %: 11.2002  MISS %: 88.7998  AVERAGE MISS PENALTY: 2427.72
LLC7 PREFETCH  ACCESS: 257618  HIT:     0  MISS: 257618  HIT %:     0  MISS %:   100  AVERAGE MISS PENALTY: 2277.2
LLC7 WRITEBACK ACCESS: 1010861  HIT: 778274  MISS: 232587  HIT %: 76.9912  MISS %: 23.0088  AVERAGE MISS PENALTY: 0

Total Rob stall cycles : 	1554933081
Total Load Rob Stall cycles : 	1491113299
Average Rob Stall cycles : 	 123
Average Load Rob Stall cycles : 	 794

CPU 1 cumulative IPC: 0.123153 instructions: 200448280 cycles: 1627641136
ITLB TOTAL     ACCESS: 30735744  HIT: 30735744  MISS:     0  HIT %:   100  MISS %:     0  AVERAGE MISS PENALTY: 0
ITLB LOAD      ACCESS: 30735744  HIT: 30735744  MISS:     0  HIT %:   100  MISS %:     0  AVERAGE MISS PENALTY: 0
ITLB RFO       ACCESS:     0  HIT:     0  MISS:     0  HIT %:     0  MISS %:     0  AVERAGE MISS PENALTY: 0
ITLB PREFETCH  ACCESS:     0  HIT:     0  MISS:     0  HIT %:     0  MISS %:     0  AVERAGE MISS PENALTY: 0
ITLB WRITEBACK ACCESS:     0  HIT:     0  MISS:     0  HIT %:     0  MISS %:     0  AVERAGE MISS PENALTY: 0

DTLB TOTAL     ACCESS: 40444682  HIT: 40170090  MISS: 274592  HIT %: 99.3211  MISS %: 0.678932  AVERAGE MISS PENALTY: 87.3864
DTLB LOAD      ACCESS: 19579601  HIT: 19542340  MISS: 37261  HIT %: 99.8097  MISS %: 0.190305  AVERAGE MISS PENALTY: 109.005
DTLB RFO       ACCESS: 20865081  HIT: 20627750  MISS: 237331  HIT %: 98.8625  MISS %: 1.13746  AVERAGE MISS PENALTY: 83.9923
DTLB PREFETCH  ACCESS:     0  HIT:     0  MISS:     0  HIT %:     0  MISS %:     0  AVERAGE MISS PENALTY: 0
DTLB WRITEBACK ACCESS:     0  HIT:     0  MISS:     0  HIT %:     0  MISS %:     0  AVERAGE MISS PENALTY: 0

STLB TOTAL     ACCESS: 274592  HIT: 125596  MISS: 148996  HIT %: 45.7391  MISS %: 54.2609  AVERAGE MISS PENALTY: 100
STLB LOAD      ACCESS: 37261  HIT:     0  MISS: 37261  HIT %:     0  MISS %:   100  AVERAGE MISS PENALTY: 100
STLB RFO       ACCESS: 237331  HIT: 125596  MISS: 111735  HIT %: 52.9202  MISS %: 47.0798  AVERAGE MISS PENALTY: 100
STLB PREFETCH  ACCESS:     0  HIT:     0  MISS:     0  HIT %:     0  MISS %:     0  AVERAGE MISS PENALTY: 0
STLB WRITEBACK ACCESS:     0  HIT:     0  MISS:     0  HIT %:     0  MISS %:     0  AVERAGE MISS PENALTY: 0

L1D TOTAL     ACCESS: 58720696  HIT: 42979673  MISS: 15741023  HIT %: 73.1934  MISS %: 26.8066  AVERAGE MISS PENALTY: 3.38095e+07
L1D LOAD      ACCESS: 16543092  HIT: 14981335  MISS: 1561757  HIT %: 90.5595  MISS %: 9.44054  AVERAGE MISS PENALTY: 3.40756e+08
L1D RFO       ACCESS: 34742606  HIT: 21396184  MISS: 13346422  HIT %: 61.5849  MISS %: 38.4151  AVERAGE MISS PENALTY: 1384.73
L1D PREFETCH  ACCESS: 7434998  HIT: 6602154  MISS: 832844  HIT %: 88.7983  MISS %: 11.2017  AVERAGE MISS PENALTY: 1165.58
L1D WRITEBACK ACCESS:     0  HIT:     0  MISS:     0  HIT %:     0  MISS %:     0  AVERAGE MISS PENALTY: 0

L1I TOTAL     ACCESS: 42441448  HIT: 42441448  MISS:     0  HIT %:   100  MISS %:     0  AVERAGE MISS PENALTY: 0
L1I LOAD      ACCESS: 42441448  HIT: 42441448  MISS:     0  HIT %:   100  MISS %:     0  AVERAGE MISS PENALTY: 0
L1I RFO       ACCESS:     0  HIT:     0  MISS:     0  HIT %:     0  MISS %:     0  AVERAGE MISS PENALTY: 0
L1I PREFETCH  ACCESS:     0  HIT:     0  MISS:     0  HIT %:     0  MISS %:     0  AVERAGE MISS PENALTY: 0
L1I WRITEBACK ACCESS:     0  HIT:     0  MISS:     0  HIT %:     0  MISS %:     0  AVERAGE MISS PENALTY: 0

L2C TOTAL     ACCESS: 29903819  HIT: 19386004  MISS: 10517815  HIT %: 64.8279  MISS %: 35.1721  AVERAGE MISS PENALTY: 8.51933e+07
L2C LOAD      ACCESS: 1553405  HIT: 271815  MISS: 1281590  HIT %: 17.498  MISS %: 82.502  AVERAGE MISS PENALTY: 6.99153e+08
L2C RFO       ACCESS: 13346421  HIT: 5214327  MISS: 8132094  HIT %: 39.0691  MISS %: 60.9309  AVERAGE MISS PENALTY: 2246.42
L2C PREFETCH  ACCESS: 1657569  HIT: 554404  MISS: 1103165  HIT %: 33.4468  MISS %: 66.5532  AVERAGE MISS PENALTY: 1823.59
L2C WRITEBACK ACCESS: 13346424  HIT: 13345458  MISS:   966  HIT %: 99.9928  MISS %: 0.00723789  AVERAGE MISS PENALTY: 0


LLC0 TOTAL     ACCESS: 2330476  HIT: 904709  MISS: 1425767  HIT %: 38.8208  MISS %: 61.1792  AVERAGE MISS PENALTY: 2014.86
LLC0 LOAD      ACCESS: 66207  HIT:     0  MISS: 66207  HIT %:     0  MISS %:   100  AVERAGE MISS PENALTY: 2117.83
LLC0 RFO       ACCESS: 1016143  HIT: 118940  MISS: 897203  HIT %: 11.705  MISS %: 88.295  AVERAGE MISS PENALTY: 2473.09
LLC0 PREFETCH  ACCESS: 231691  HIT:     0  MISS: 231691  HIT %:     0  MISS %:   100  AVERAGE MISS PENALTY: 2216.92
LLC0 WRITEBACK ACCESS: 1016435  HIT: 785769  MISS: 230666  HIT %: 77.3064  MISS %: 22.6936  AVERAGE MISS PENALTY: 0

LLC1 TOTAL     ACCESS: 2330832  HIT: 904807  MISS: 1426025  HIT %: 38.8191  MISS %: 61.1809  AVERAGE MISS PENALTY: 2016.98
LLC1 LOAD      ACCESS: 50975  HIT:    11  MISS: 50964  HIT %: 0.0215792  MISS %: 99.9784  AVERAGE MISS PENALTY: 2109.49
LLC1 RFO       ACCESS: 1016271  HIT: 118978  MISS: 897293  HIT %: 11.7073  MISS %: 88.2927  AVERAGE MISS PENALTY: 2474.47
LLC1 PREFETCH  ACCESS: 246997  HIT:     0  MISS: 246997  HIT %:     0  MISS %:   100  AVERAGE MISS PENALTY: 2220.41
LLC1 WRITEBACK ACCESS: 1016589  HIT: 785818  MISS: 230771  HIT %: 77.2995  MISS %: 22.7005  AVERAGE MISS PENALTY: 0

LLC2 TOTAL     ACCESS: 2330936  HIT: 904914  MISS: 1426022  HIT %: 38.8219  MISS %: 61.1781  AVERAGE MISS PENALTY: 1996.09
LLC2 LOAD      ACCESS: 41210  HIT:    15  MISS: 41195  HIT %: 0.0363989  MISS %: 99.9636  AVERAGE MISS PENALTY: 2106.94
LLC2 RFO       ACCESS: 1016080  HIT: 118944  MISS: 897136  HIT %: 11.7062  MISS %: 88.2938  AVERAGE MISS PENALTY: 2416.86
LLC2 PREFETCH  ACCESS: 257343  HIT:   347  MISS: 256996  HIT %: 0.134839  MISS %: 99.8652  AVERAGE MISS PENALTY: 2301.28
LLC2 WRITEBACK ACCESS: 1016303  HIT: 785608  MISS: 230695  HIT %: 77.3006  MISS %: 22.6994  AVERAGE MISS PENALTY: 0

LLC3 TOTAL     ACCESS: 2332106  HIT: 906269  MISS: 1425837  HIT %: 38.8605  MISS %: 61.1395  AVERAGE MISS PENALTY: 1996.69
LLC3 LOAD      ACCESS: 40903  HIT:    14  MISS: 40889  HIT %: 0.0342273  MISS %: 99.9658  AVERAGE MISS PENALTY: 2142.38
LLC3 RFO       ACCESS: 1016672  HIT: 119374  MISS: 897298  HIT %: 11.7416  MISS %: 88.2584  AVERAGE MISS PENALTY: 2417.52
[...]
LLC1 AVERAGE MISS LATENCY: 2006.52 cycles
LLC2 TOTAL     ACCESS: 2320750  HIT: 898278  MISS: 1422472  HIT %: 38.7064  MISS %: 61.2936  AVERAGE MISS PENALTY: 1993.22
LLC2 LOAD      ACCESS: 40971  HIT:    10  MISS: 40961  HIT %: 0.0244075  MISS %: 99.9756  AVERAGE MISS PENALTY: 2116.64
LLC2 RFO       ACCESS: 1011359  HIT: 116168  MISS: 895191  HIT %: 11.4863  MISS %: 88.5137  AVERAGE MISS PENALTY: 2411.18
LLC2 PREFETCH  ACCESS: 256845  HIT:   289  MISS: 256556  HIT %: 0.112519  MISS %: 99.8875  AVERAGE MISS PENALTY: 2300.22
LLC2 WRITEBACK ACCESS: 1011575  HIT: 781811  MISS: 229764  HIT %: 77.2865  MISS %: 22.7135  AVERAGE MISS PENALTY: 0
LLC2 PREFETCH  REQUESTED:     0  ISSUED:     0  USEFUL:     0  USELESS: 2055690
 USEFUL LOAD PREFETCHES:          0 PREFETCH ISSUED TO LOWER LEVEL:  675197921  ACCURACY: 0
 TIMELY PREFETCHES:          0 LATE PREFETCHES: 0 DROPPED PREFETCHES: 0
LLC2 AVERAGE MISS LATENCY: 1993.22 cycles
LLC3 TOTAL     ACCESS: 2321197  HIT: 897858  MISS: 1423339  HIT %: 38.6808  MISS %: 61.3192  AVERAGE MISS PENALTY: 2045.61
LLC3 LOAD      ACCESS: 41291  HIT:    11  MISS: 41280  HIT %: 0.0266402  MISS %: 99.9734  AVERAGE MISS PENALTY: 2131.51
LLC3 RFO       ACCESS: 1011593  HIT: 116361  MISS: 895232  HIT %: 11.5027  MISS %: 88.4973  AVERAGE MISS PENALTY: 2495.83
LLC3 PREFETCH  ACCESS: 256513  HIT:   283  MISS: 256230  HIT %: 0.110326  MISS %: 99.8897  AVERAGE MISS PENALTY: 2299.7
LLC3 WRITEBACK ACCESS: 1011800  HIT: 781203  MISS: 230597  HIT %: 77.2092  MISS %: 22.7908  AVERAGE MISS PENALTY: 0
LLC3 PREFETCH  REQUESTED:     0  ISSUED:     0  USEFUL:    18  USELESS: 2057233
 USEFUL LOAD PREFETCHES:         18 PREFETCH ISSUED TO LOWER LEVEL:  673036107  ACCURACY: 2.67445e-06
 TIMELY PREFETCHES:         18 LATE PREFETCHES: 0 DROPPED PREFETCHES: 0
LLC3 AVERAGE MISS LATENCY: 1993.39 cycles
LLC4 TOTAL     ACCESS: 2320828  HIT: 898646  MISS: 1422182  HIT %: 38.7209  MISS %: 61.2791  AVERAGE MISS PENALTY: 2023.55
LLC4 LOAD      ACCESS: 39369  HIT:     0  MISS: 39369  HIT %:     0  MISS %:   100  AVERAGE MISS PENALTY: 2118.99
LLC4 RFO       ACCESS: 1011591  HIT: 116473  MISS: 895118  HIT %: 11.5138  MISS %: 88.4862  AVERAGE MISS PENALTY: 2480.86
LLC4 PREFETCH  ACCESS: 257964  HIT:    38  MISS: 257926  HIT %: 0.0147307  MISS %: 99.9853  AVERAGE MISS PENALTY: 2224.57
LLC4 WRITEBACK ACCESS: 1011904  HIT: 782135  MISS: 229769  HIT %: 77.2934  MISS %: 22.7066  AVERAGE MISS PENALTY: 0
LLC4 PREFETCH  REQUESTED:     0  ISSUED:     0  USEFUL:     0  USELESS: 2069639
 USEFUL LOAD PREFETCHES:          0 PREFETCH ISSUED TO LOWER LEVEL:  763665537  ACCURACY: 0
 TIMELY PREFETCHES:          0 LATE PREFETCHES: 0 DROPPED PREFETCHES: 0
LLC4 AVERAGE MISS LATENCY: 2023.55 cycles
LLC5 TOTAL     ACCESS: 2320828  HIT: 897541  MISS: 1423287  HIT %: 38.6733  MISS %: 61.3267  AVERAGE MISS PENALTY: 2015.47
LLC5 LOAD      ACCESS: 39549  HIT:     0  MISS: 39549  HIT %:     0  MISS %:   100  AVERAGE MISS PENALTY: 2114.36
LLC5 RFO       ACCESS: 1011593  HIT: 116418  MISS: 895175  HIT %: 11.5084  MISS %: 88.4916  AVERAGE MISS PENALTY: 2471.29
LLC5 PREFETCH  ACCESS: 257773  HIT:    24  MISS: 257749  HIT %: 0.00931052  MISS %: 99.9907  AVERAGE MISS PENALTY: 2222.05
LLC5 WRITEBACK ACCESS: 1011913  HIT: 781099  MISS: 230814  HIT %: 77.1903  MISS %: 22.8097  AVERAGE MISS PENALTY: 0
LLC5 PREFETCH  REQUESTED:     0  ISSUED:     0  USEFUL:     0  USELESS: 2066616
 USEFUL LOAD PREFETCHES:          0 PREFETCH ISSUED TO LOWER LEVEL:  753486214  ACCURACY: 0
 TIMELY PREFETCHES:          0 LATE PREFETCHES: 0 DROPPED PREFETCHES: 0
LLC5 AVERAGE MISS LATENCY: 2015.47 cycles
LLC6 TOTAL     ACCESS: 2320293  HIT: 897876  MISS: 1422417  HIT %: 38.6967  MISS %: 61.3033  AVERAGE MISS PENALTY: 1999.48
LLC6 LOAD      ACCESS: 40441  HIT:     0  MISS: 40441  HIT %:     0  MISS %:   100  AVERAGE MISS PENALTY: 2154.9
LLC6 RFO       ACCESS: 1011389  HIT: 116281  MISS: 895108  HIT %: 11.4972  MISS %: 88.5028  AVERAGE MISS PENALTY: 2422.2
LLC6 PREFETCH  ACCESS: 256787  HIT:     0  MISS: 256787  HIT %:     0  MISS %:   100  AVERAGE MISS PENALTY: 2292.98
LLC6 WRITEBACK ACCESS: 1011676  HIT: 781595  MISS: 230081  HIT %: 77.2574  MISS %: 22.7426  AVERAGE MISS PENALTY: 0
LLC6 PREFETCH  REQUESTED:     0  ISSUED:     0  USEFUL:     0  USELESS: 2060742
 USEFUL LOAD PREFETCHES:          0 PREFETCH ISSUED TO LOWER LEVEL: 1079854697  ACCURACY: 0
 TIMELY PREFETCHES:          0 LATE PREFETCHES: 0 DROPPED PREFETCHES: 0
LLC6 AVERAGE MISS LATENCY: 1999.48 cycles
LLC7 TOTAL     ACCESS: 2319853  HIT: 896824  MISS: 1423029  HIT %: 38.6587  MISS %: 61.3413  AVERAGE MISS PENALTY: 1991.51
LLC7 LOAD      ACCESS: 40243  HIT:     0  MISS: 40243  HIT %:     0  MISS %:   100  AVERAGE MISS PENALTY: 2152.44
LLC7 RFO       ACCESS: 1011169  HIT: 115954  MISS: 895215  HIT %: 11.4673  MISS %: 88.5327  AVERAGE MISS PENALTY: 2414.89
LLC7 PREFETCH  ACCESS: 256985  HIT:     0  MISS: 256985  HIT %:     0  MISS %:   100  AVERAGE MISS PENALTY: 2278.38
LLC7 WRITEBACK ACCESS: 1011456  HIT: 780870  MISS: 230586  HIT %: 77.2026  MISS %: 22.7974  AVERAGE MISS PENALTY: 0
LLC7 PREFETCH  REQUESTED:     0  ISSUED:     0  USEFUL:     0  USELESS: 2062234
 USEFUL LOAD PREFETCHES:          0 PREFETCH ISSUED TO LOWER LEVEL: 1080512234  ACCURACY: 0
 TIMELY PREFETCHES:          0 LATE PREFETCHES: 0 DROPPED PREFETCHES: 0
LLC7 AVERAGE MISS LATENCY: 1991.51 cycles
ROI Average ROB Stall Cycles:	123.081
ROI Total ROB Stalls Cycles:	1549769380
ROI TOTAL ROB counter      :	12591448
ROI Average Load ROB Stall Cycles:	795.276
ROI Total Load ROB Stalls Cycle  :	1486156328
ROI Total Load ROB stalls Counter:	1868730
Major fault: 0 Minor fault: 128116

CPU 7 cumulative IPC: 0.122877 instructions: 200000000 cycles: 1627641136
ITLB TOTAL     ACCESS: 30667735  HIT: 30667735  MISS:     0  HIT %:   100  MISS %:     0  AVERAGE MISS PENALTY: 0
ITLB LOAD      ACCESS: 30667735  HIT: 30667735  MISS:     0  HIT %:   100  MISS %:     0  AVERAGE MISS PENALTY: 0
ITLB RFO       ACCESS:     0  HIT:     0  MISS:     0  HIT %:     0  MISS %:     0  AVERAGE MISS PENALTY: 0
ITLB PREFETCH  ACCESS:     0  HIT:     0  MISS:     0  HIT %:     0  MISS %:     0  AVERAGE MISS PENALTY: 0
ITLB WRITEBACK ACCESS:     0  HIT:     0  MISS:     0  HIT %:     0  MISS %:     0  AVERAGE MISS PENALTY: 0
ITLB PREFETCH  REQUESTED:     0  ISSUED:     0  USEFUL:     0  USELESS:     0
 USEFUL LOAD PREFETCHES:          0 PREFETCH ISSUED TO LOWER LEVEL:          0  ACCURACY: -nan
 TIMELY PREFETCHES:          0 LATE PREFETCHES: 0 DROPPED PREFETCHES: 0
ITLB AVERAGE MISS LATENCY: -nan cycles
DTLB TOTAL     ACCESS: 40354113  HIT: 40080140  MISS: 273973  HIT %: 99.3211  MISS %: 0.678922  AVERAGE MISS PENALTY: 87.3661
DTLB LOAD      ACCESS: 19534792  HIT: 19497614  MISS: 37178  HIT %: 99.8097  MISS %: 0.190317  AVERAGE MISS PENALTY: 109
DTLB RFO       ACCESS: 20819321  HIT: 20582526  MISS: 236795  HIT %: 98.8626  MISS %: 1.13738  AVERAGE MISS PENALTY: 83.9695
DTLB PREFETCH  ACCESS:     0  HIT:     0  MISS:     0  HIT %:     0  MISS %:     0  AVERAGE MISS PENALTY: 0
DTLB WRITEBACK ACCESS:     0  HIT:     0  MISS:     0  HIT %:     0  MISS %:     0  AVERAGE MISS PENALTY: 0
DTLB PREFETCH  REQUESTED:     0  ISSUED:     0  USEFUL:     0  USELESS:     0
 USEFUL LOAD PREFETCHES:          0 PREFETCH ISSUED TO LOWER LEVEL:          0  ACCURACY: -nan
 TIMELY PREFETCHES:          0 LATE PREFETCHES: 0 DROPPED PREFETCHES: 0
DTLB AVERAGE MISS LATENCY: 87.3661 cycles
STLB TOTAL     ACCESS: 273973  HIT: 125310  MISS: 148663  HIT %: 45.7381  MISS %: 54.2619  AVERAGE MISS PENALTY: 100
STLB LOAD      ACCESS: 37178  HIT:     0  MISS: 37178  HIT %:     0  MISS %:   100  AVERAGE MISS PENALTY: 100
STLB RFO       ACCESS: 236795  HIT: 125310  MISS: 111485  HIT %: 52.9192  MISS %: 47.0808  AVERAGE MISS PENALTY: 100
STLB PREFETCH  ACCESS:     0  HIT:     0  MISS:     0  HIT %:     0  MISS %:     0  AVERAGE MISS PENALTY: 0
STLB WRITEBACK ACCESS:     0  HIT:     0  MISS:     0  HIT %:     0  MISS %:     0  AVERAGE MISS PENALTY: 0
STLB PREFETCH  REQUESTED:     0  ISSUED:     0  USEFUL:     0  USELESS:     0
 USEFUL LOAD PREFETCHES:          0 PREFETCH ISSUED TO LOWER LEVEL:          0  ACCURACY: -nan
 TIMELY PREFETCHES:          0 LATE PREFETCHES: 0 DROPPED PREFETCHES: 0
STLB AVERAGE MISS LATENCY: 100 cycles
L1D TOTAL     ACCESS: 58490359  HIT: 42784767  MISS: 15705592  HIT %: 73.1484  MISS %: 26.8516  AVERAGE MISS PENALTY: 3.36646e+07
L1D LOAD      ACCESS: 16471292  HIT: 14910257  MISS: 1561035  HIT %: 90.5227  MISS %: 9.47731  AVERAGE MISS PENALTY: 3.38688e+08
L1D RFO       ACCESS: 34644707  HIT: 21328318  MISS: 13316389  HIT %: 61.563  MISS %: 38.437  AVERAGE MISS PENALTY: 1395.06
L1D PREFETCH  ACCESS: 7374360  HIT: 6546192  MISS: 828168  HIT %: 88.7696  MISS %: 11.2304  AVERAGE MISS PENALTY: 1164.66
L1D WRITEBACK ACCESS:     0  HIT:     0  MISS:     0  HIT %:     0  MISS %:     0  AVERAGE MISS PENALTY: 0
L1D PREFETCH  REQUESTED: 26155040  ISSUED: 21983831  USEFUL: 817084  USELESS: 11085
 USEFUL LOAD PREFETCHES:     817084 PREFETCH ISSUED TO LOWER LEVEL: 1938091542  ACCURACY: 0.0421592
 TIMELY PREFETCHES:     817084 LATE PREFETCHES: 1819645 DROPPED PREFETCHES: 4171209
L1D AVERAGE MISS LATENCY: 1399.12 cycles
L1I TOTAL     ACCESS: 42345155  HIT: 42345155  MISS:     0  HIT %:   100  MISS %:     0  AVERAGE MISS PENALTY: 0
L1I LOAD      ACCESS: 42345155  HIT: 42345155  MISS:     0  HIT %:   100  MISS %:     0  AVERAGE MISS PENALTY: 0
L1I RFO       ACCESS:     0  HIT:     0  MISS:     0  HIT %:     0  MISS %:     0  AVERAGE MISS PENALTY: 0
L1I PREFETCH  ACCESS:     0  HIT:     0  MISS:     0  HIT %:     0  MISS %:     0  AVERAGE MISS PENALTY: 0
L1I WRITEBACK ACCESS:     0  HIT:     0  MISS:     0  HIT %:     0  MISS %:     0  AVERAGE MISS PENALTY: 0
L1I PREFETCH  REQUESTED:     0  ISSUED:     0  USEFUL:     0  USELESS:     0
 USEFUL LOAD PREFETCHES:          0 PREFETCH ISSUED TO LOWER LEVEL:          0  ACCURACY: -nan
 TIMELY PREFETCHES:          0 LATE PREFETCHES: 0 DROPPED PREFETCHES: 0
L1I AVERAGE MISS LATENCY: -nan cycles
L2C TOTAL     ACCESS: 29838006  HIT: 19366735  MISS: 10471271  HIT %: 64.9063  MISS %: 35.0937  AVERAGE MISS PENALTY: 8.52163e+07
L2C LOAD      ACCESS: 1552473  HIT: 273891  MISS: 1278582  HIT %: 17.6422  MISS %: 82.3578  AVERAGE MISS PENALTY: 6.97884e+08
L2C RFO       ACCESS: 13316386  HIT: 5225391  MISS: 8090995  HIT %: 39.2403  MISS %: 60.7597  AVERAGE MISS PENALTY: 2269.76
L2C PREFETCH  ACCESS: 1652753  HIT: 552017  MISS: 1100736  HIT %: 33.3998  MISS %: 66.6002  AVERAGE MISS PENALTY: 1822.88
L2C WRITEBACK ACCESS: 13316394  HIT: 13315436  MISS:   958  HIT %: 99.9928  MISS %: 0.00719414  AVERAGE MISS PENALTY: 0
L2C PREFETCH  REQUESTED: 4150660  ISSUED: 4150640  USEFUL: 273844  USELESS: 828751
 USEFUL LOAD PREFETCHES:     273844 PREFETCH ISSUED TO LOWER LEVEL:    4138685  ACCURACY: 6.61669
 TIMELY PREFETCHES:     273844 LATE PREFETCHES: 1655068 DROPPED PREFETCHES: 20
L2C AVERAGE MISS LATENCY: 2167.2 cycles
LLC0 TOTAL     ACCESS: 2318990  HIT: 896314  MISS: 1422676  HIT %: 38.6511  MISS %: 61.3489  AVERAGE MISS PENALTY: 2025.65
LLC0 LOAD      ACCESS: 66437  HIT:     0  MISS: 66437  HIT %:     0  MISS %:   100  AVERAGE MISS PENALTY: 2108.23
LLC0 RFO       ACCESS: 1010800  HIT: 115660  MISS: 895140  HIT %: 11.4424  MISS %: 88.5576  AVERAGE MISS PENALTY: 2492.79
LLC0 PREFETCH  ACCESS: 230792  HIT:     0  MISS: 230792  HIT %:     0  MISS %:   100  AVERAGE MISS PENALTY: 2211.44
LLC0 WRITEBACK ACCESS: 1010961  HIT: 780654  MISS: 230307  HIT %: 77.219  MISS %: 22.781  AVERAGE MISS PENALTY: 0
LLC0 PREFETCH  REQUESTED:     0  ISSUED:     0  USEFUL:     0  USELESS: 1853731
 USEFUL LOAD PREFETCHES:          0 PREFETCH ISSUED TO LOWER LEVEL:  569000731  ACCURACY: 0
 TIMELY PREFETCHES:          0 LATE PREFETCHES: 0 DROPPED PREFETCHES: 0
LLC0 AVERAGE MISS LATENCY: 2025.65 cycles
Deadblocks : 490003 Deadblock percentage : 737.545

LLC1 TOTAL     ACCESS: 2319414  HIT: 896513  MISS: 1422901  HIT %: 38.6526  MISS %: 61.3474  AVERAGE MISS PENALTY: 2027.45
LLC1 LOAD      ACCESS: 51345  HIT:    12  MISS: 51333  HIT %: 0.0233713  MISS %: 99.9766  AVERAGE MISS PENALTY: 2096.56
LLC1 RFO       ACCESS: 1010943  HIT: 115968  MISS: 894975  HIT %: 11.4713  MISS %: 88.5287  AVERAGE MISS PENALTY: 2495.99
LLC1 PREFETCH  ACCESS: 245961  HIT:     0  MISS: 245961  HIT %:     0  MISS %:   100  AVERAGE MISS PENALTY: 2209.25
LLC1 WRITEBACK ACCESS: 1011165  HIT: 780533  MISS: 230632  HIT %: 77.1915  MISS %: 22.8085  AVERAGE MISS PENALTY: 0
LLC1 PREFETCH  REQUESTED:     0  ISSUED:     0  USEFUL:     0  USELESS: 1976494
 USEFUL LOAD PREFETCHES:          0 PREFETCH ISSUED TO LOWER LEVEL:  595936100  ACCURACY: 0
 TIMELY PREFETCHES:          0 LATE PREFETCHES: 0 DROPPED PREFETCHES: 0
LLC1 AVERAGE MISS LATENCY: 2027.45 cycles
LLC2 TOTAL     ACCESS: 2320647  HIT: 897008  MISS: 1423639  HIT %: 38.6534  MISS %: 61.3466  AVERAGE MISS PENALTY: 2002.85
LLC2 LOAD      ACCESS: 41440  HIT:     9  MISS: 41431  HIT %: 0.0217181  MISS %: 99.9783  AVERAGE MISS PENALTY: 2093.97
LLC2 RFO       ACCESS: 1011360  HIT: 116199  MISS: 895161  HIT %: 11.4894  MISS %: 88.5106  AVERAGE MISS PENALTY: 2432.42
LLC2 PREFETCH  ACCESS: 256369  HIT:   288  MISS: 256081  HIT %: 0.112338  MISS %: 99.8877  AVERAGE MISS PENALTY: 2292.95
LLC2 WRITEBACK ACCESS: 1011478  HIT: 780512  MISS: 230966  HIT %: 77.1655  MISS %: 22.8345  AVERAGE MISS PENALTY: 0
LLC2 PREFETCH  REQUESTED:     0  ISSUED:     0  USEFUL:     0  USELESS: 2055690
 USEFUL LOAD PREFETCHES:          0 PREFETCH ISSUED TO LOWER LEVEL:  675197921  ACCURACY: 0
 TIMELY PREFETCHES:          0 LATE PREFETCHES: 0 DROPPED PREFETCHES: 0
LLC2 AVERAGE MISS LATENCY: 2002.85 cycles
LLC3 TOTAL     ACCESS: 2319975  HIT: 896602  MISS: 1423373  HIT %: 38.6471  MISS %: 61.3529  AVERAGE MISS PENALTY: 2008.51
LLC3 LOAD      ACCESS: 41405  HIT:    11  MISS: 41394  HIT %: 0.0265668  MISS %: 99.9734  AVERAGE MISS PENALTY: 2124.94
LLC3 RFO       ACCESS: 1011024  HIT: 115851  MISS: 895173  HIT %: 11.4588  MISS %: 88.5412  AVERAGE MISS PENALTY: 2439.9
LLC3 PREFETCH  ACCESS: 256400  HIT:   283  MISS: 256117  HIT %: 0.110374  MISS %: 99.8896  AVERAGE MISS PENALTY: 2291.01
LLC3 WRITEBACK ACCESS: 1011146  HIT: 780457  MISS: 230689  HIT %: 77.1854  MISS %: 22.8146  AVERAGE MISS PENALTY: 0
LLC3 PREFETCH  REQUESTED:     0  ISSUED:     0  USEFUL:    18  USELESS: 2057233
 USEFUL LOAD PREFETCHES:         18 PREFETCH ISSUED TO LOWER LEVEL:  673036107  ACCURACY: 2.67445e-06
 TIMELY PREFETCHES:         18 LATE PREFETCHES: 0 DROPPED PREFETCHES: 0
LLC3 AVERAGE MISS LATENCY: 2008.51 cycles
LLC4 TOTAL     ACCESS: 2320714  HIT: 897079  MISS: 1423635  HIT %: 38.6553  MISS %: 61.3447  AVERAGE MISS PENALTY: 2042.44
LLC4 LOAD      ACCESS: 39322  HIT:     0  MISS: 39322  HIT %:     0  MISS %:   100  AVERAGE MISS PENALTY: 2127.17
LLC4 RFO       ACCESS: 1011581  HIT: 116258  MISS: 895323  HIT %: 11.4927  MISS %: 88.5073  AVERAGE MISS PENALTY: 2513.82
LLC4 PREFETCH  ACCESS: 258037  HIT:    52  MISS: 257985  HIT %: 0.0201521  MISS %: 99.9798  AVERAGE MISS PENALTY: 2222.45
LLC4 WRITEBACK ACCESS: 1011774  HIT: 780769  MISS: 231005  HIT %: 77.1683  MISS %: 22.8317  AVERAGE MISS PENALTY: 0
LLC4 PREFETCH  REQUESTED:     0  ISSUED:     0  USEFUL:     0  USELESS: 2069639
 USEFUL LOAD PREFETCHES:          0 PREFETCH ISSUED TO LOWER LEVEL:  763665537  ACCURACY: 0
 TIMELY PREFETCHES:          0 LATE PREFETCHES: 0 DROPPED PREFETCHES: 0
LLC4 AVERAGE MISS LATENCY: 2042.44 cycles
LLC5 TOTAL     ACCESS: 2319947  HIT: 896566  MISS: 1423381  HIT %: 38.646  MISS %: 61.354  AVERAGE MISS PENALTY: 2035.79
LLC5 LOAD      ACCESS: 39974  HIT:     0  MISS: 39974  HIT %:     0  MISS %:   100  AVERAGE MISS PENALTY: 2103.13
LLC5 RFO       ACCESS: 1011214  HIT: 116086  MISS: 895128  HIT %: 11.4799  MISS %: 88.5201  AVERAGE MISS PENALTY: 2505.82
LLC5 PREFETCH  ACCESS: 257378  HIT:    43  MISS: 257335  HIT %: 0.0167069  MISS %: 99.9833  AVERAGE MISS PENALTY: 2217.35
LLC5 WRITEBACK ACCESS: 1011381  HIT: 780437  MISS: 230944  HIT %: 77.1655  MISS %: 22.8345  AVERAGE MISS PENALTY: 0
LLC5 PREFETCH  REQUESTED:     0  ISSUED:     0  USEFUL:     0  USELESS: 2066616
 USEFUL LOAD PREFETCHES:          0 PREFETCH ISSUED TO LOWER LEVEL:  753486214  ACCURACY: 0
 TIMELY PREFETCHES:          0 LATE PREFETCHES: 0 DROPPED PREFETCHES: 0
LLC5 AVERAGE MISS LATENCY: 2035.79 cycles
LLC6 TOTAL     ACCESS: 2319386  HIT: 896048  MISS: 1423338  HIT %: 38.633  MISS %: 61.367  AVERAGE MISS PENALTY: 2010.84
LLC6 LOAD      ACCESS: 40504  HIT:     0  MISS: 40504  HIT %:     0  MISS %:   100  AVERAGE MISS PENALTY: 2136
LLC6 RFO       ACCESS: 1010992  HIT: 116001  MISS: 894991  HIT %: 11.474  MISS %: 88.526  AVERAGE MISS PENALTY: 2446.58
LLC6 PREFETCH  ACCESS: 256725  HIT:     0  MISS: 256725  HIT %:     0  MISS %:   100  AVERAGE MISS PENALTY: 2282.29
LLC6 WRITEBACK ACCESS: 1011165  HIT: 780047  MISS: 231118  HIT %: 77.1434  MISS %: 22.8566  AVERAGE MISS PENALTY: 0
LLC6 PREFETCH  REQUESTED:     0  ISSUED:     0  USEFUL:     0  USELESS: 2060742
 USEFUL LOAD PREFETCHES:          0 PREFETCH ISSUED TO LOWER LEVEL: 1079854697  ACCURACY: 0
 TIMELY PREFETCHES:          0 LATE PREFETCHES: 0 DROPPED PREFETCHES: 0
LLC6 AVERAGE MISS LATENCY: 2010.84 cycles
LLC7 TOTAL     ACCESS: 2319701  HIT: 896458  MISS: 1423243  HIT %: 38.6454  MISS %: 61.3546  AVERAGE MISS PENALTY: 2005.78
LLC7 LOAD      ACCESS: 40315  HIT:     0  MISS: 40315  HIT %:     0  MISS %:   100  AVERAGE MISS PENALTY: 2135.18
LLC7 RFO       ACCESS: 1011147  HIT: 115998  MISS: 895149  HIT %: 11.4719  MISS %: 88.5281  AVERAGE MISS PENALTY: 2439.78
LLC7 PREFETCH  ACCESS: 256914  HIT:     0  MISS: 256914  HIT %:     0  MISS %:   100  AVERAGE MISS PENALTY: 2275.73
LLC7 WRITEBACK ACCESS: 1011325  HIT: 780460  MISS: 230865  HIT %: 77.172  MISS %: 22.828  AVERAGE MISS PENALTY: 0
LLC7 PREFETCH  REQUESTED:     0  ISSUED:     0  USEFUL:     0  USELESS: 2062234
 USEFUL LOAD PREFETCHES:          0 PREFETCH ISSUED TO LOWER LEVEL: 1080512234  ACCURACY: 0
 TIMELY PREFETCHES:          0 LATE PREFETCHES: 0 DROPPED PREFETCHES: 0
LLC7 AVERAGE MISS LATENCY: 2005.78 cycles
ROI Average ROB Stall Cycles:	123.465
ROI Total ROB Stalls Cycles:	1554418417
ROI TOTAL ROB counter      :	12589930
ROI Average Load ROB Stall Cycles:	796.482
ROI Total Load ROB Stalls Cycle  :	1490588612
ROI Total Load ROB stalls Counter:	1871466
Major fault: 0 Minor fault: 127860








Interconnect Stats 
LINK 0 BW : 0LINK 1 BW : 0LINK 2 BW : 0LINK 3 BW : 0LINK 4 BW : 0LINK 5 BW : 0LINK 6 BW : 0LINK 7 BW : 0
DRAM Statistics
 CHANNEL 0
 RQ ROW_BUFFER_HIT: 14152093  ROW_BUFFER_MISS: 24099362
 DBUS_CONGESTED: 91022956
 WQ ROW_BUFFER_HIT: 713352  ROW_BUFFER_MISS: 28581886  FULL:    61

 CHANNEL 1
 RQ ROW_BUFFER_HIT: 14144678  ROW_BUFFER_MISS: 24107872
 DBUS_CONGESTED: 91022956
 WQ ROW_BUFFER_HIT: 713163  ROW_BUFFER_MISS: 28581409  FULL:    50

 AVG_CONGESTED_CYCLE: 6
DRAM PAGES: 2097152
Allocated PAGES: 1024281
L2C destructor called
L1D destructor called
L1I destructor called
STLB destructor called
DTLB destructor called
ITLB destructor called
L2C destructor called
L1D destructor called
L1I destructor called
STLB destructor called
DTLB destructor called
ITLB destructor called
L2C destructor called
L1D destructor called
L1I destructor called
STLB destructor called
DTLB destructor called
ITLB destructor called
L2C destructor called
L1D destructor called
L1I destructor called
STLB destructor called
DTLB destructor called
ITLB destructor called
L2C destructor called
L1D destructor called
L1I destructor called
STLB destructor called
DTLB destructor called
ITLB destructor called
L2C destructor called
L1D destructor called
L1I destructor called
STLB destructor called
DTLB destructor called
ITLB destructor called
L2C destructor called
L1D destructor called
L1I destructor called
STLB destructor called
DTLB destructor called
ITLB destructor called
L2C destructor called
L1D destructor called
L1I destructor called
STLB destructor called
DTLB destructor called
ITLB destructor called
