
*** ChampSim Multicore Out-of-Order Simulator ***

Warmup Instructions: 200000000
Simulation Instructions: 200000000
Number of CPUs: 8
threads:1

L1I Configuration:
L1I_SET:64
L1I_WAY:8
L1I_RQ_SIZE:64
L1I_WQ_SIZE:64
L1I_PQ_SIZE:8
L1I_MSHR_SIZE:8

L1D Configuration:
L1D_SET:64
L1D_WAY:12
L1D_RQ_SIZE:64
L1D_WQ_SIZE:64
L1D_PQ_SIZE:8
L1D_MSHR_SIZE:16

L2C Configuration:
L2C_SET:1024
L2C_WAY:8
L2C_RQ_SIZE:32
L2C_WQ_SIZE:32
L2C_PQ_SIZE:16
L2C_MSHR_SIZE:32

LLC Configuration:
LLC_SET:2048
LLC_WAY:16
LLC SLICES:8
LLC_RQ_SIZE:64
LLC_WQ_SIZE:64
LLC_PQ_SIZE:32
LLC_MSHR_SIZE:64

Interconnect OFF
Attacker deprioritize is: OFF
Off-chip DRAM Size: 8192 MB Channels: 2 Width: 64-bit Data Rate: 3200 MT/s
PAGE SIZE in KB: 4.000000 
PAGE SIZE in MB: 0.003906 
PAGE offset in bits: 12 
CEASER-S_LLC:0
MIRAGE : 1
CEASER_LATENCY:3
REMAP : OFF
Partitions : 1
Multi-Step : OFF
BFS : OFF

CPU 0 runs /home/anubhav/spec_2017/623.xalancbmk_s-202B.champsimtrace.xz
CPU 1 runs /home/anubhav/spec_2017/623.xalancbmk_s-202B.champsimtrace.xz
CPU 2 runs /home/anubhav/spec_2017/623.xalancbmk_s-202B.champsimtrace.xz
CPU 3 runs /home/anubhav/spec_2017/623.xalancbmk_s-202B.champsimtrace.xz
CPU 4 runs /home/anubhav/spec_2017/623.xalancbmk_s-202B.champsimtrace.xz
CPU 5 runs /home/anubhav/spec_2017/623.xalancbmk_s-202B.champsimtrace.xz
CPU 6 runs /home/anubhav/spec_2017/623.xalancbmk_s-202B.champsimtrace.xz
CPU 7 runs /home/anubhav/spec_2017/623.xalancbmk_s-202B.champsimtrace.xz
CPU 0 Bimodal branch predictor
Initialize Hawkeye state
Initialize Hawkeye state
Initialize Hawkeye state
Initialize Hawkeye state
Initialize Hawkeye state
Initialize Hawkeye state
Initialize Hawkeye state
Initialize Hawkeye state
CPU 1 Bimodal branch predictor
Initialize Hawkeye state
Initialize Hawkeye state
Initialize Hawkeye state
Initialize Hawkeye state
Initialize Hawkeye state
Initialize Hawkeye state
Initialize Hawkeye state
Initialize Hawkeye state
CPU 2 Bimodal branch predictor
Initialize Hawkeye state
Initialize Hawkeye state
Initialize Hawkeye state
Initialize Hawkeye state
Initialize Hawkeye state
Initialize Hawkeye state
Initialize Hawkeye state
Initialize Hawkeye state
CPU 3 Bimodal branch predictor
Initialize Hawkeye state
Initialize Hawkeye state
Initialize Hawkeye state
Initialize Hawkeye state
Initialize Hawkeye state
Initialize Hawkeye state
Initialize Hawkeye state
Initialize Hawkeye state
CPU 4 Bimodal branch predictor
Initialize Hawkeye state
Initialize Hawkeye state
Initialize Hawkeye state
Initialize Hawkeye state
Initialize Hawkeye state
Initialize Hawkeye state
Initialize Hawkeye state
Initialize Hawkeye state
CPU 5 Bimodal branch predictor
Initialize Hawkeye state
Initialize Hawkeye state
Initialize Hawkeye state
Initialize Hawkeye state
Initialize Hawkeye state
Initialize Hawkeye state
Initialize Hawkeye state
Initialize Hawkeye state
CPU 6 Bimodal branch predictor
Initialize Hawkeye state
Initialize Hawkeye state
Initialize Hawkeye state
Initialize Hawkeye state
Initialize Hawkeye state
Initialize Hawkeye state
Initialize Hawkeye state
Initialize Hawkeye state
CPU 7 Bimodal branch predictor
Initialize Hawkeye state
Initialize Hawkeye state
Initialize Hawkeye state
Initialize Hawkeye state
Initialize Hawkeye state
Initialize Hawkeye state
Initialize Hawkeye state
Initialize Hawkeye state
Heartbeat CPU 1 instructions: 10000000 cycles: 7137695 heartbeat IPC: 1.40101 cumulative IPC: 1.40101 (Simulation time: 0 hr 12 min 2 sec) 
 Total Blocks : 262144 Invalid Blocks : 459
Heartbeat CPU 0 instructions: 10000000 cycles: 7137708 heartbeat IPC: 1.40101 cumulative IPC: 1.40101 (Simulation time: 0 hr 12 min 2 sec) 
 Total Blocks : 262144 Invalid Blocks : 459
Heartbeat CPU 2 instructions: 10000000 cycles: 7137713 heartbeat IPC: 1.40101 cumulative IPC: 1.40101 (Simulation time: 0 hr 12 min 2 sec) 
 Total Blocks : 262144 Invalid Blocks : 459
Heartbeat CPU 3 instructions: 10000000 cycles: 7137729 heartbeat IPC: 1.40101 cumulative IPC: 1.40101 (Simulation time: 0 hr 12 min 2 sec) 
 Total Blocks : 262144 Invalid Blocks : 459
Heartbeat CPU 4 instructions: 10000000 cycles: 7137731 heartbeat IPC: 1.40101 cumulative IPC: 1.40101 (Simulation time: 0 hr 12 min 2 sec) 
 Total Blocks : 262144 Invalid Blocks : 459
Heartbeat CPU 5 instructions: 10000000 cycles: 7137758 heartbeat IPC: 1.401 cumulative IPC: 1.401 (Simulation time: 0 hr 12 min 2 sec) 
 Total Blocks : 262144 Invalid Blocks : 459
Heartbeat CPU 7 instructions: 10000000 cycles: 7137762 heartbeat IPC: 1.401 cumulative IPC: 1.401 (Simulation time: 0 hr 12 min 2 sec) 
 Total Blocks : 262144 Invalid Blocks : 459
Heartbeat CPU 6 instructions: 10000000 cycles: 7137763 heartbeat IPC: 1.401 cumulative IPC: 1.401 (Simulation time: 0 hr 12 min 2 sec) 
 Total Blocks : 262144 Invalid Blocks : 459
Heartbeat CPU 0 instructions: 20000001 cycles: 14277017 heartbeat IPC: 1.4007 cumulative IPC: 1.40085 (Simulation time: 0 hr 23 min 47 sec) 
 Total Blocks : 262144 Invalid Blocks : 6
Heartbeat CPU 3 instructions: 20000001 cycles: 14277024 heartbeat IPC: 1.4007 cumulative IPC: 1.40085 (Simulation time: 0 hr 23 min 47 sec) 
 Total Blocks : 262144 Invalid Blocks : 6
Heartbeat CPU 1 instructions: 20000001 cycles: 14277033 heartbeat IPC: 1.40069 cumulative IPC: 1.40085 (Simulation time: 0 hr 23 min 47 sec) 
 Total Blocks : 262144 Invalid Blocks : 6
Heartbeat CPU 2 instructions: 20000001 cycles: 14277037 heartbeat IPC: 1.40069 cumulative IPC: 1.40085 (Simulation time: 0 hr 23 min 47 sec) 
 Total Blocks : 262144 Invalid Blocks : 6
Heartbeat CPU 4 instructions: 20000001 cycles: 14277045 heartbeat IPC: 1.40069 cumulative IPC: 1.40085 (Simulation time: 0 hr 23 min 47 sec) 
 Total Blocks : 262144 Invalid Blocks : 6
Heartbeat CPU 6 instructions: 20000001 cycles: 14277052 heartbeat IPC: 1.4007 cumulative IPC: 1.40085 (Simulation time: 0 hr 23 min 47 sec) 
 Total Blocks : 262144 Invalid Blocks : 6
Heartbeat CPU 7 instructions: 20000001 cycles: 14277077 heartbeat IPC: 1.40069 cumulative IPC: 1.40085 (Simulation time: 0 hr 23 min 47 sec) 
 Total Blocks : 262144 Invalid Blocks : 6
Heartbeat CPU 5 instructions: 20000001 cycles: 14277087 heartbeat IPC: 1.40069 cumulative IPC: 1.40085 (Simulation time: 0 hr 23 min 47 sec) 
 Total Blocks : 262144 Invalid Blocks : 6
Heartbeat CPU 0 instructions: 30000001 cycles: 21400641 heartbeat IPC: 1.40378 cumulative IPC: 1.40183 (Simulation time: 0 hr 35 min 21 sec) 
 Total Blocks : 262144 Invalid Blocks : 0
Heartbeat CPU 3 instructions: 30000001 cycles: 21400672 heartbeat IPC: 1.40378 cumulative IPC: 1.40183 (Simulation time: 0 hr 35 min 21 sec) 
 Total Blocks : 262144 Invalid Blocks : 0
Heartbeat CPU 1 instructions: 30000001 cycles: 21400677 heartbeat IPC: 1.40378 cumulative IPC: 1.40182 (Simulation time: 0 hr 35 min 21 sec) 
 Total Blocks : 262144 Invalid Blocks : 0
Heartbeat CPU 2 instructions: 30000001 cycles: 21400688 heartbeat IPC: 1.40377 cumulative IPC: 1.40182 (Simulation time: 0 hr 35 min 21 sec) 
 Total Blocks : 262144 Invalid Blocks : 0
Heartbeat CPU 6 instructions: 30000001 cycles: 21400694 heartbeat IPC: 1.40378 cumulative IPC: 1.40182 (Simulation time: 0 hr 35 min 21 sec) 
 Total Blocks : 262144 Invalid Blocks : 0
Heartbeat CPU 4 instructions: 30000001 cycles: 21400725 heartbeat IPC: 1.40377 cumulative IPC: 1.40182 (Simulation time: 0 hr 35 min 21 sec) 
 Total Blocks : 262144 Invalid Blocks : 0
Heartbeat CPU 5 instructions: 30000001 cycles: 21400735 heartbeat IPC: 1.40378 cumulative IPC: 1.40182 (Simulation time: 0 hr 35 min 21 sec) 
 Total Blocks : 262144 Invalid Blocks : 0
Heartbeat CPU 7 instructions: 30000001 cycles: 21400736 heartbeat IPC: 1.40377 cumulative IPC: 1.40182 (Simulation time: 0 hr 35 min 21 sec) 
 Total Blocks : 262144 Invalid Blocks : 0
Heartbeat CPU 0 instructions: 40000002 cycles: 28556424 heartbeat IPC: 1.39747 cumulative IPC: 1.40074 (Simulation time: 0 hr 47 min 5 sec) 
 Total Blocks : 262144 Invalid Blocks : 0
Heartbeat CPU 1 instructions: 40000002 cycles: 28556468 heartbeat IPC: 1.39747 cumulative IPC: 1.40073 (Simulation time: 0 hr 47 min 5 sec) 
 Total Blocks : 262144 Invalid Blocks : 0
Heartbeat CPU 2 instructions: 40000002 cycles: 28556474 heartbeat IPC: 1.39747 cumulative IPC: 1.40073 (Simulation time: 0 hr 47 min 5 sec) 
 Total Blocks : 262144 Invalid Blocks : 0
Heartbeat CPU 3 instructions: 40000002 cycles: 28556475 heartbeat IPC: 1.39747 cumulative IPC: 1.40073 (Simulation time: 0 hr 47 min 5 sec) 
 Total Blocks : 262144 Invalid Blocks : 0
Heartbeat CPU 6 instructions: 40000002 cycles: 28556488 heartbeat IPC: 1.39747 cumulative IPC: 1.40073 (Simulation time: 0 hr 47 min 5 sec) 
 Total Blocks : 262144 Invalid Blocks : 0
Heartbeat CPU 4 instructions: 40000002 cycles: 28556498 heartbeat IPC: 1.39747 cumulative IPC: 1.40073 (Simulation time: 0 hr 47 min 5 sec) 
 Total Blocks : 262144 Invalid Blocks : 0
Heartbeat CPU 5 instructions: 40000002 cycles: 28556516 heartbeat IPC: 1.39747 cumulative IPC: 1.40073 (Simulation time: 0 hr 47 min 5 sec) 
 Total Blocks : 262144 Invalid Blocks : 0
Heartbeat CPU 7 instructions: 40000002 cycles: 28556531 heartbeat IPC: 1.39747 cumulative IPC: 1.40073 (Simulation time: 0 hr 47 min 5 sec) 
 Total Blocks : 262144 Invalid Blocks : 0
Heartbeat CPU 0 instructions: 50000000 cycles: 35662558 heartbeat IPC: 1.40723 cumulative IPC: 1.40203 (Simulation time: 0 hr 58 min 29 sec) 
 Total Blocks : 262144 Invalid Blocks : 0
Heartbeat CPU 2 instructions: 50000000 cycles: 35662599 heartbeat IPC: 1.40724 cumulative IPC: 1.40203 (Simulation time: 0 hr 58 min 29 sec) 
 Total Blocks : 262144 Invalid Blocks : 0
Heartbeat CPU 1 instructions: 50000000 cycles: 35662611 heartbeat IPC: 1.40723 cumulative IPC: 1.40203 (Simulation time: 0 hr 58 min 29 sec) 
 Total Blocks : 262144 Invalid Blocks : 0
Heartbeat CPU 3 instructions: 50000000 cycles: 35662618 heartbeat IPC: 1.40723 cumulative IPC: 1.40203 (Simulation time: 0 hr 58 min 29 sec) 
 Total Blocks : 262144 Invalid Blocks : 0
Heartbeat CPU 4 instructions: 50000000 cycles: 35662633 heartbeat IPC: 1.40723 cumulative IPC: 1.40203 (Simulation time: 0 hr 58 min 29 sec) 
 Total Blocks : 262144 Invalid Blocks : 0
Heartbeat CPU 6 instructions: 50000000 cycles: 35662641 heartbeat IPC: 1.40723 cumulative IPC: 1.40203 (Simulation time: 0 hr 58 min 29 sec) 
 Total Blocks : 262144 Invalid Blocks : 0
Heartbeat CPU 5 instructions: 50000000 cycles: 35662663 heartbeat IPC: 1.40723 cumulative IPC: 1.40203 (Simulation time: 0 hr 58 min 29 sec) 
 Total Blocks : 262144 Invalid Blocks : 0
Heartbeat CPU 7 instructions: 50000000 cycles: 35662677 heartbeat IPC: 1.40723 cumulative IPC: 1.40203 (Simulation time: 0 hr 58 min 29 sec) 
 Total Blocks : 262144 Invalid Blocks : 0
Heartbeat CPU 0 instructions: 60000003 cycles: 42773400 heartbeat IPC: 1.4063 cumulative IPC: 1.40274 (Simulation time: 1 hr 10 min 15 sec) 
 Total Blocks : 262144 Invalid Blocks : 0
Heartbeat CPU 1 instructions: 60000003 cycles: 42773446 heartbeat IPC: 1.40631 cumulative IPC: 1.40274 (Simulation time: 1 hr 10 min 15 sec) 
 Total Blocks : 262144 Invalid Blocks : 0
Heartbeat CPU 2 instructions: 60000003 cycles: 42773452 heartbeat IPC: 1.4063 cumulative IPC: 1.40274 (Simulation time: 1 hr 10 min 15 sec) 
 Total Blocks : 262144 Invalid Blocks : 0
Heartbeat CPU 3 instructions: 60000003 cycles: 42773483 heartbeat IPC: 1.4063 cumulative IPC: 1.40274 (Simulation time: 1 hr 10 min 15 sec) 
 Total Blocks : 262144 Invalid Blocks : 0
Heartbeat CPU 4 instructions: 60000003 cycles: 42773492 heartbeat IPC: 1.4063 cumulative IPC: 1.40274 (Simulation time: 1 hr 10 min 15 sec) 
 Total Blocks : 262144 Invalid Blocks : 0
Heartbeat CPU 6 instructions: 60000003 cycles: 42773504 heartbeat IPC: 1.4063 cumulative IPC: 1.40274 (Simulation time: 1 hr 10 min 15 sec) 
 Total Blocks : 262144 Invalid Blocks : 0
Heartbeat CPU 5 instructions: 60000003 cycles: 42773518 heartbeat IPC: 1.4063 cumulative IPC: 1.40274 (Simulation time: 1 hr 10 min 15 sec) 
 Total Blocks : 262144 Invalid Blocks : 0
Heartbeat CPU 7 instructions: 60000003 cycles: 42773546 heartbeat IPC: 1.4063 cumulative IPC: 1.40274 (Simulation time: 1 hr 10 min 15 sec) 
 Total Blocks : 262144 Invalid Blocks : 0
Heartbeat CPU 0 instructions: 70000003 cycles: 49881002 heartbeat IPC: 1.40694 cumulative IPC: 1.40334 (Simulation time: 1 hr 21 min 58 sec) 
 Total Blocks : 262144 Invalid Blocks : 0
Heartbeat CPU 1 instructions: 70000003 cycles: 49881050 heartbeat IPC: 1.40694 cumulative IPC: 1.40334 (Simulation time: 1 hr 21 min 58 sec) 
 Total Blocks : 262144 Invalid Blocks : 0
Heartbeat CPU 3 instructions: 70000003 cycles: 49881053 heartbeat IPC: 1.40695 cumulative IPC: 1.40334 (Simulation time: 1 hr 21 min 58 sec) 
 Total Blocks : 262144 Invalid Blocks : 0
Heartbeat CPU 2 instructions: 70000003 cycles: 49881066 heartbeat IPC: 1.40694 cumulative IPC: 1.40334 (Simulation time: 1 hr 21 min 58 sec) 
 Total Blocks : 262144 Invalid Blocks : 0
Heartbeat CPU 4 instructions: 70000003 cycles: 49881107 heartbeat IPC: 1.40694 cumulative IPC: 1.40334 (Simulation time: 1 hr 21 min 58 sec) 
 Total Blocks : 262144 Invalid Blocks : 0
Heartbeat CPU 5 instructions: 70000003 cycles: 49881114 heartbeat IPC: 1.40695 cumulative IPC: 1.40334 (Simulation time: 1 hr 21 min 58 sec) 
 Total Blocks : 262144 Invalid Blocks : 0
Heartbeat CPU 6 instructions: 70000003 cycles: 49881132 heartbeat IPC: 1.40694 cumulative IPC: 1.40334 (Simulation time: 1 hr 21 min 58 sec) 
 Total Blocks : 262144 Invalid Blocks : 0
Heartbeat CPU 7 instructions: 70000003 cycles: 49881163 heartbeat IPC: 1.40694 cumulative IPC: 1.40334 (Simulation time: 1 hr 21 min 58 sec) 
 Total Blocks : 262144 Invalid Blocks : 0
Heartbeat CPU 0 instructions: 80000002 cycles: 56988389 heartbeat IPC: 1.40699 cumulative IPC: 1.40379 (Simulation time: 1 hr 33 min 52 sec) 
 Total Blocks : 262144 Invalid Blocks : 0
Heartbeat CPU 1 instructions: 80000002 cycles: 56988427 heartbeat IPC: 1.40699 cumulative IPC: 1.40379 (Simulation time: 1 hr 33 min 52 sec) 
 Total Blocks : 262144 Invalid Blocks : 0
Heartbeat CPU 2 instructions: 80000002 cycles: 56988453 heartbeat IPC: 1.40699 cumulative IPC: 1.40379 (Simulation time: 1 hr 33 min 52 sec) 
 Total Blocks : 262144 Invalid Blocks : 0
Heartbeat CPU 3 instructions: 80000002 cycles: 56988456 heartbeat IPC: 1.40698 cumulative IPC: 1.40379 (Simulation time: 1 hr 33 min 52 sec) 
 Total Blocks : 262144 Invalid Blocks : 0
Heartbeat CPU 4 instructions: 80000002 cycles: 56988488 heartbeat IPC: 1.40699 cumulative IPC: 1.40379 (Simulation time: 1 hr 33 min 52 sec) 
 Total Blocks : 262144 Invalid Blocks : 0
Heartbeat CPU 5 instructions: 80000002 cycles: 56988499 heartbeat IPC: 1.40699 cumulative IPC: 1.40379 (Simulation time: 1 hr 33 min 52 sec) 
 Total Blocks : 262144 Invalid Blocks : 0
Heartbeat CPU 6 instructions: 80000002 cycles: 56988530 heartbeat IPC: 1.40698 cumulative IPC: 1.40379 (Simulation time: 1 hr 33 min 52 sec) 
 Total Blocks : 262144 Invalid Blocks : 0
Heartbeat CPU 7 instructions: 80000002 cycles: 56988563 heartbeat IPC: 1.40698 cumulative IPC: 1.40379 (Simulation time: 1 hr 33 min 52 sec) 
 Total Blocks : 262144 Invalid Blocks : 0
Heartbeat CPU 0 instructions: 90000000 cycles: 64128424 heartbeat IPC: 1.40055 cumulative IPC: 1.40343 (Simulation time: 1 hr 45 min 24 sec) 
 Total Blocks : 262144 Invalid Blocks : 0
Heartbeat CPU 2 instructions: 90000000 cycles: 64128511 heartbeat IPC: 1.40055 cumulative IPC: 1.40343 (Simulation time: 1 hr 45 min 24 sec) 
 Total Blocks : 262144 Invalid Blocks : 0
Heartbeat CPU 3 instructions: 90000000 cycles: 64128536 heartbeat IPC: 1.40054 cumulative IPC: 1.40343 (Simulation time: 1 hr 45 min 24 sec) 
 Total Blocks : 262144 Invalid Blocks : 0
Heartbeat CPU 1 instructions: 90000000 cycles: 64128553 heartbeat IPC: 1.40054 cumulative IPC: 1.40343 (Simulation time: 1 hr 45 min 24 sec) 
 Total Blocks : 262144 Invalid Blocks : 0
Heartbeat CPU 4 instructions: 90000000 cycles: 64128554 heartbeat IPC: 1.40055 cumulative IPC: 1.40343 (Simulation time: 1 hr 45 min 24 sec) 
 Total Blocks : 262144 Invalid Blocks : 0
Heartbeat CPU 5 instructions: 90000000 cycles: 64128579 heartbeat IPC: 1.40054 cumulative IPC: 1.40343 (Simulation time: 1 hr 45 min 24 sec) 
 Total Blocks : 262144 Invalid Blocks : 0
Heartbeat CPU 6 instructions: 90000000 cycles: 64128597 heartbeat IPC: 1.40055 cumulative IPC: 1.40343 (Simulation time: 1 hr 45 min 24 sec) 
 Total Blocks : 262144 Invalid Blocks : 0
Heartbeat CPU 7 instructions: 90000000 cycles: 64128637 heartbeat IPC: 1.40055 cumulative IPC: 1.40343 (Simulation time: 1 hr 45 min 24 sec) 
 Total Blocks : 262144 Invalid Blocks : 0
Heartbeat CPU 0 instructions: 100000003 cycles: 71263796 heartbeat IPC: 1.40147 cumulative IPC: 1.40324 (Simulation time: 1 hr 57 min 17 sec) 
 Total Blocks : 262144 Invalid Blocks : 0
Heartbeat CPU 2 instructions: 100000003 cycles: 71263860 heartbeat IPC: 1.40147 cumulative IPC: 1.40324 (Simulation time: 1 hr 57 min 17 sec) 
 Total Blocks : 262144 Invalid Blocks : 0
Heartbeat CPU 3 instructions: 100000003 cycles: 71263896 heartbeat IPC: 1.40147 cumulative IPC: 1.40324 (Simulation time: 1 hr 57 min 17 sec) 
 Total Blocks : 262144 Invalid Blocks : 0
Heartbeat CPU 1 instructions: 100000003 cycles: 71263937 heartbeat IPC: 1.40147 cumulative IPC: 1.40323 (Simulation time: 1 hr 57 min 17 sec) 
 Total Blocks : 262144 Invalid Blocks : 0
Heartbeat CPU 5 instructions: 100000003 cycles: 71263942 heartbeat IPC: 1.40147 cumulative IPC: 1.40323 (Simulation time: 1 hr 57 min 17 sec) 
 Total Blocks : 262144 Invalid Blocks : 0
Heartbeat CPU 4 instructions: 100000003 cycles: 71263951 heartbeat IPC: 1.40146 cumulative IPC: 1.40323 (Simulation time: 1 hr 57 min 17 sec) 
 Total Blocks : 262144 Invalid Blocks : 0
Heartbeat CPU 6 instructions: 100000003 cycles: 71263986 heartbeat IPC: 1.40147 cumulative IPC: 1.40323 (Simulation time: 1 hr 57 min 17 sec) 
 Total Blocks : 262144 Invalid Blocks : 0
Heartbeat CPU 7 instructions: 100000003 cycles: 71264011 heartbeat IPC: 1.40147 cumulative IPC: 1.40323 (Simulation time: 1 hr 57 min 17 sec) 
 Total Blocks : 262144 Invalid Blocks : 0
Heartbeat CPU 0 instructions: 110000000 cycles: 78418671 heartbeat IPC: 1.39765 cumulative IPC: 1.40273 (Simulation time: 2 hr 8 min 50 sec) 
 Total Blocks : 262144 Invalid Blocks : 0
Heartbeat CPU 2 instructions: 110000000 cycles: 78418745 heartbeat IPC: 1.39765 cumulative IPC: 1.40273 (Simulation time: 2 hr 8 min 50 sec) 
 Total Blocks : 262144 Invalid Blocks : 0
Heartbeat CPU 3 instructions: 110000000 cycles: 78418767 heartbeat IPC: 1.39765 cumulative IPC: 1.40273 (Simulation time: 2 hr 8 min 50 sec) 
 Total Blocks : 262144 Invalid Blocks : 0
Heartbeat CPU 1 instructions: 110000000 cycles: 78418792 heartbeat IPC: 1.39765 cumulative IPC: 1.40272 (Simulation time: 2 hr 8 min 50 sec) 
 Total Blocks : 262144 Invalid Blocks : 0
Heartbeat CPU 4 instructions: 110000000 cycles: 78418830 heartbeat IPC: 1.39765 cumulative IPC: 1.40272 (Simulation time: 2 hr 8 min 50 sec) 
 Total Blocks : 262144 Invalid Blocks : 0
Heartbeat CPU 5 instructions: 110000000 cycles: 78418844 heartbeat IPC: 1.39764 cumulative IPC: 1.40272 (Simulation time: 2 hr 8 min 50 sec) 
 Total Blocks : 262144 Invalid Blocks : 0
Heartbeat CPU 6 instructions: 110000000 cycles: 78418846 heartbeat IPC: 1.39765 cumulative IPC: 1.40272 (Simulation time: 2 hr 8 min 50 sec) 
 Total Blocks : 262144 Invalid Blocks : 0
Heartbeat CPU 7 instructions: 110000000 cycles: 78418883 heartbeat IPC: 1.39765 cumulative IPC: 1.40272 (Simulation time: 2 hr 8 min 50 sec) 
 Total Blocks : 262144 Invalid Blocks : 0
Heartbeat CPU 0 instructions: 120000002 cycles: 85544447 heartbeat IPC: 1.40336 cumulative IPC: 1.40278 (Simulation time: 2 hr 20 min 25 sec) 
 Total Blocks : 262144 Invalid Blocks : 0
Heartbeat CPU 1 instructions: 120000002 cycles: 85544547 heartbeat IPC: 1.40336 cumulative IPC: 1.40278 (Simulation time: 2 hr 20 min 25 sec) 
 Total Blocks : 262144 Invalid Blocks : 0
Heartbeat CPU 2 instructions: 120000002 cycles: 85544551 heartbeat IPC: 1.40335 cumulative IPC: 1.40278 (Simulation time: 2 hr 20 min 25 sec) 
 Total Blocks : 262144 Invalid Blocks : 0
Heartbeat CPU 3 instructions: 120000002 cycles: 85544564 heartbeat IPC: 1.40335 cumulative IPC: 1.40278 (Simulation time: 2 hr 20 min 25 sec) 
 Total Blocks : 262144 Invalid Blocks : 0
Heartbeat CPU 4 instructions: 120000002 cycles: 85544629 heartbeat IPC: 1.40335 cumulative IPC: 1.40278 (Simulation time: 2 hr 20 min 25 sec) 
 Total Blocks : 262144 Invalid Blocks : 0
Heartbeat CPU 5 instructions: 120000002 cycles: 85544640 heartbeat IPC: 1.40335 cumulative IPC: 1.40278 (Simulation time: 2 hr 20 min 25 sec) 
 Total Blocks : 262144 Invalid Blocks : 0
Heartbeat CPU 6 instructions: 120000002 cycles: 85544652 heartbeat IPC: 1.40335 cumulative IPC: 1.40278 (Simulation time: 2 hr 20 min 25 sec) 
 Total Blocks : 262144 Invalid Blocks : 0
Heartbeat CPU 7 instructions: 120000002 cycles: 85544702 heartbeat IPC: 1.40335 cumulative IPC: 1.40278 (Simulation time: 2 hr 20 min 25 sec) 
 Total Blocks : 262144 Invalid Blocks : 0
Heartbeat CPU 0 instructions: 130000002 cycles: 92659235 heartbeat IPC: 1.40552 cumulative IPC: 1.40299 (Simulation time: 2 hr 31 min 51 sec) 
 Total Blocks : 262144 Invalid Blocks : 0
Heartbeat CPU 1 instructions: 130000002 cycles: 92659312 heartbeat IPC: 1.40553 cumulative IPC: 1.40299 (Simulation time: 2 hr 31 min 51 sec) 
 Total Blocks : 262144 Invalid Blocks : 0
Heartbeat CPU 3 instructions: 130000002 cycles: 92659328 heartbeat IPC: 1.40553 cumulative IPC: 1.40299 (Simulation time: 2 hr 31 min 51 sec) 
 Total Blocks : 262144 Invalid Blocks : 0
Heartbeat CPU 2 instructions: 130000002 cycles: 92659332 heartbeat IPC: 1.40552 cumulative IPC: 1.40299 (Simulation time: 2 hr 31 min 51 sec) 
 Total Blocks : 262144 Invalid Blocks : 0
Heartbeat CPU 4 instructions: 130000002 cycles: 92659360 heartbeat IPC: 1.40553 cumulative IPC: 1.40299 (Simulation time: 2 hr 31 min 51 sec) 
 Total Blocks : 262144 Invalid Blocks : 0
Heartbeat CPU 5 instructions: 130000002 cycles: 92659402 heartbeat IPC: 1.40553 cumulative IPC: 1.40299 (Simulation time: 2 hr 31 min 51 sec) 
 Total Blocks : 262144 Invalid Blocks : 0
Heartbeat CPU 6 instructions: 130000002 cycles: 92659422 heartbeat IPC: 1.40553 cumulative IPC: 1.40299 (Simulation time: 2 hr 31 min 51 sec) 
 Total Blocks : 262144 Invalid Blocks : 0
Heartbeat CPU 7 instructions: 130000002 cycles: 92659475 heartbeat IPC: 1.40553 cumulative IPC: 1.40299 (Simulation time: 2 hr 31 min 51 sec) 
 Total Blocks : 262144 Invalid Blocks : 0
Heartbeat CPU 0 instructions: 140000000 cycles: 99739533 heartbeat IPC: 1.41237 cumulative IPC: 1.40366 (Simulation time: 2 hr 43 min 25 sec) 
 Total Blocks : 262144 Invalid Blocks : 0
Heartbeat CPU 1 instructions: 140000000 cycles: 99739594 heartbeat IPC: 1.41237 cumulative IPC: 1.40366 (Simulation time: 2 hr 43 min 25 sec) 
 Total Blocks : 262144 Invalid Blocks : 0
Heartbeat CPU 2 instructions: 140000000 cycles: 99739618 heartbeat IPC: 1.41237 cumulative IPC: 1.40365 (Simulation time: 2 hr 43 min 25 sec) 
 Total Blocks : 262144 Invalid Blocks : 0
Heartbeat CPU 3 instructions: 140000000 cycles: 99739627 heartbeat IPC: 1.41237 cumulative IPC: 1.40365 (Simulation time: 2 hr 43 min 25 sec) 
 Total Blocks : 262144 Invalid Blocks : 0
Heartbeat CPU 4 instructions: 140000000 cycles: 99739649 heartbeat IPC: 1.41237 cumulative IPC: 1.40365 (Simulation time: 2 hr 43 min 25 sec) 
 Total Blocks : 262144 Invalid Blocks : 0
Heartbeat CPU 5 instructions: 140000000 cycles: 99739673 heartbeat IPC: 1.41238 cumulative IPC: 1.40365 (Simulation time: 2 hr 43 min 25 sec) 
 Total Blocks : 262144 Invalid Blocks : 0
Heartbeat CPU 6 instructions: 140000000 cycles: 99739689 heartbeat IPC: 1.41238 cumulative IPC: 1.40365 (Simulation time: 2 hr 43 min 25 sec) 
 Total Blocks : 262144 Invalid Blocks : 0
Heartbeat CPU 7 instructions: 140000000 cycles: 99739752 heartbeat IPC: 1.41237 cumulative IPC: 1.40365 (Simulation time: 2 hr 43 min 25 sec) 
 Total Blocks : 262144 Invalid Blocks : 0
Heartbeat CPU 0 instructions: 150000000 cycles: 106847836 heartbeat IPC: 1.40681 cumulative IPC: 1.40387 (Simulation time: 2 hr 54 min 51 sec) 
 Total Blocks : 262144 Invalid Blocks : 0
Heartbeat CPU 1 instructions: 150000000 cycles: 106847907 heartbeat IPC: 1.4068 cumulative IPC: 1.40386 (Simulation time: 2 hr 54 min 51 sec) 
 Total Blocks : 262144 Invalid Blocks : 0
Heartbeat CPU 2 instructions: 150000000 cycles: 106847923 heartbeat IPC: 1.40681 cumulative IPC: 1.40386 (Simulation time: 2 hr 54 min 51 sec) 
 Total Blocks : 262144 Invalid Blocks : 0
Heartbeat CPU 3 instructions: 150000000 cycles: 106847926 heartbeat IPC: 1.40681 cumulative IPC: 1.40386 (Simulation time: 2 hr 54 min 51 sec) 
 Total Blocks : 262144 Invalid Blocks : 0
Heartbeat CPU 4 instructions: 150000000 cycles: 106847933 heartbeat IPC: 1.40681 cumulative IPC: 1.40386 (Simulation time: 2 hr 54 min 51 sec) 
 Total Blocks : 262144 Invalid Blocks : 0
Heartbeat CPU 5 instructions: 150000000 cycles: 106847966 heartbeat IPC: 1.40681 cumulative IPC: 1.40386 (Simulation time: 2 hr 54 min 51 sec) 
 Total Blocks : 262144 Invalid Blocks : 0
Heartbeat CPU 6 instructions: 150000000 cycles: 106847982 heartbeat IPC: 1.40681 cumulative IPC: 1.40386 (Simulation time: 2 hr 54 min 51 sec) 
 Total Blocks : 262144 Invalid Blocks : 0
Heartbeat CPU 7 instructions: 150000000 cycles: 106848039 heartbeat IPC: 1.40681 cumulative IPC: 1.40386 (Simulation time: 2 hr 54 min 51 sec) 
 Total Blocks : 262144 Invalid Blocks : 0
Heartbeat CPU 0 instructions: 160000002 cycles: 113986602 heartbeat IPC: 1.4008 cumulative IPC: 1.40367 (Simulation time: 3 hr 6 min 20 sec) 
 Total Blocks : 262144 Invalid Blocks : 0
Heartbeat CPU 1 instructions: 160000002 cycles: 113986676 heartbeat IPC: 1.4008 cumulative IPC: 1.40367 (Simulation time: 3 hr 6 min 20 sec) 
 Total Blocks : 262144 Invalid Blocks : 0
Heartbeat CPU 2 instructions: 160000002 cycles: 113986705 heartbeat IPC: 1.4008 cumulative IPC: 1.40367 (Simulation time: 3 hr 6 min 20 sec) 
 Total Blocks : 262144 Invalid Blocks : 0
Heartbeat CPU 3 instructions: 160000002 cycles: 113986715 heartbeat IPC: 1.4008 cumulative IPC: 1.40367 (Simulation time: 3 hr 6 min 20 sec) 
 Total Blocks : 262144 Invalid Blocks : 0
Heartbeat CPU 4 instructions: 160000002 cycles: 113986723 heartbeat IPC: 1.4008 cumulative IPC: 1.40367 (Simulation time: 3 hr 6 min 20 sec) 
 Total Blocks : 262144 Invalid Blocks : 0
Heartbeat CPU 6 instructions: 160000002 cycles: 113986763 heartbeat IPC: 1.4008 cumulative IPC: 1.40367 (Simulation time: 3 hr 6 min 20 sec) 
 Total Blocks : 262144 Invalid Blocks : 0
Heartbeat CPU 5 instructions: 160000002 cycles: 113986768 heartbeat IPC: 1.4008 cumulative IPC: 1.40367 (Simulation time: 3 hr 6 min 20 sec) 
 Total Blocks : 262144 Invalid Blocks : 0
Heartbeat CPU 7 instructions: 160000002 cycles: 113986820 heartbeat IPC: 1.4008 cumulative IPC: 1.40367 (Simulation time: 3 hr 6 min 20 sec) 
 Total Blocks : 262144 Invalid Blocks : 0
Heartbeat CPU 0 instructions: 170000001 cycles: 121097630 heartbeat IPC: 1.40627 cumulative IPC: 1.40383 (Simulation time: 3 hr 17 min 55 sec) 
 Total Blocks : 262144 Invalid Blocks : 0
Heartbeat CPU 1 instructions: 170000001 cycles: 121097719 heartbeat IPC: 1.40626 cumulative IPC: 1.40382 (Simulation time: 3 hr 17 min 55 sec) 
 Total Blocks : 262144 Invalid Blocks : 0
Heartbeat CPU 3 instructions: 170000001 cycles: 121097731 heartbeat IPC: 1.40627 cumulative IPC: 1.40382 (Simulation time: 3 hr 17 min 55 sec) 
 Total Blocks : 262144 Invalid Blocks : 0
Heartbeat CPU 2 instructions: 170000001 cycles: 121097732 heartbeat IPC: 1.40627 cumulative IPC: 1.40382 (Simulation time: 3 hr 17 min 55 sec) 
 Total Blocks : 262144 Invalid Blocks : 0
Heartbeat CPU 4 instructions: 170000001 cycles: 121097771 heartbeat IPC: 1.40626 cumulative IPC: 1.40382 (Simulation time: 3 hr 17 min 55 sec) 
 Total Blocks : 262144 Invalid Blocks : 0
Heartbeat CPU 6 instructions: 170000001 cycles: 121097774 heartbeat IPC: 1.40627 cumulative IPC: 1.40382 (Simulation time: 3 hr 17 min 55 sec) 
 Total Blocks : 262144 Invalid Blocks : 0
Heartbeat CPU 5 instructions: 170000001 cycles: 121097821 heartbeat IPC: 1.40626 cumulative IPC: 1.40382 (Simulation time: 3 hr 17 min 55 sec) 
 Total Blocks : 262144 Invalid Blocks : 0
Heartbeat CPU 7 instructions: 170000001 cycles: 121097835 heartbeat IPC: 1.40627 cumulative IPC: 1.40382 (Simulation time: 3 hr 17 min 55 sec) 
 Total Blocks : 262144 Invalid Blocks : 0
Heartbeat CPU 0 instructions: 180000000 cycles: 128187598 heartbeat IPC: 1.41044 cumulative IPC: 1.40419 (Simulation time: 3 hr 29 min 23 sec) 
 Total Blocks : 262144 Invalid Blocks : 0
Heartbeat CPU 2 instructions: 180000000 cycles: 128187654 heartbeat IPC: 1.41045 cumulative IPC: 1.40419 (Simulation time: 3 hr 29 min 23 sec) 
 Total Blocks : 262144 Invalid Blocks : 0
Heartbeat CPU 1 instructions: 180000000 cycles: 128187708 heartbeat IPC: 1.41044 cumulative IPC: 1.40419 (Simulation time: 3 hr 29 min 23 sec) 
 Total Blocks : 262144 Invalid Blocks : 0
Heartbeat CPU 3 instructions: 180000000 cycles: 128187709 heartbeat IPC: 1.41044 cumulative IPC: 1.40419 (Simulation time: 3 hr 29 min 23 sec) 
 Total Blocks : 262144 Invalid Blocks : 0
Heartbeat CPU 6 instructions: 180000000 cycles: 128187720 heartbeat IPC: 1.41045 cumulative IPC: 1.40419 (Simulation time: 3 hr 29 min 23 sec) 
 Total Blocks : 262144 Invalid Blocks : 0
Heartbeat CPU 4 instructions: 180000000 cycles: 128187734 heartbeat IPC: 1.41044 cumulative IPC: 1.40419 (Simulation time: 3 hr 29 min 23 sec) 
 Total Blocks : 262144 Invalid Blocks : 0
Heartbeat CPU 5 instructions: 180000000 cycles: 128187763 heartbeat IPC: 1.41045 cumulative IPC: 1.40419 (Simulation time: 3 hr 29 min 23 sec) 
 Total Blocks : 262144 Invalid Blocks : 0
Heartbeat CPU 7 instructions: 180000000 cycles: 128187791 heartbeat IPC: 1.41045 cumulative IPC: 1.40419 (Simulation time: 3 hr 29 min 23 sec) 
 Total Blocks : 262144 Invalid Blocks : 0
Heartbeat CPU 0 instructions: 190000001 cycles: 135300428 heartbeat IPC: 1.40591 cumulative IPC: 1.40428 (Simulation time: 3 hr 40 min 48 sec) 
 Total Blocks : 262144 Invalid Blocks : 0
Heartbeat CPU 2 instructions: 190000001 cycles: 135300461 heartbeat IPC: 1.40591 cumulative IPC: 1.40428 (Simulation time: 3 hr 40 min 48 sec) 
 Total Blocks : 262144 Invalid Blocks : 0
Heartbeat CPU 1 instructions: 190000001 cycles: 135300535 heartbeat IPC: 1.40591 cumulative IPC: 1.40428 (Simulation time: 3 hr 40 min 48 sec) 
 Total Blocks : 262144 Invalid Blocks : 0
Heartbeat CPU 3 instructions: 190000001 cycles: 135300542 heartbeat IPC: 1.40591 cumulative IPC: 1.40428 (Simulation time: 3 hr 40 min 48 sec) 
 Total Blocks : 262144 Invalid Blocks : 0
Heartbeat CPU 4 instructions: 190000001 cycles: 135300550 heartbeat IPC: 1.40591 cumulative IPC: 1.40428 (Simulation time: 3 hr 40 min 48 sec) 
 Total Blocks : 262144 Invalid Blocks : 0
Heartbeat CPU 6 instructions: 190000001 cycles: 135300572 heartbeat IPC: 1.40591 cumulative IPC: 1.40428 (Simulation time: 3 hr 40 min 48 sec) 
 Total Blocks : 262144 Invalid Blocks : 0
Heartbeat CPU 5 instructions: 190000001 cycles: 135300592 heartbeat IPC: 1.40591 cumulative IPC: 1.40428 (Simulation time: 3 hr 40 min 48 sec) 
 Total Blocks : 262144 Invalid Blocks : 0
Heartbeat CPU 7 instructions: 190000001 cycles: 135300623 heartbeat IPC: 1.40591 cumulative IPC: 1.40428 (Simulation time: 3 hr 40 min 48 sec) 
 Total Blocks : 262144 Invalid Blocks : 0
Heartbeat CPU 0 instructions: 200000002 cycles: 142417863 heartbeat IPC: 1.405 cumulative IPC: 1.40432 (Simulation time: 3 hr 52 min 23 sec) 
 Total Blocks : 262144 Invalid Blocks : 0
Heartbeat CPU 2 instructions: 200000002 cycles: 142417867 heartbeat IPC: 1.40501 cumulative IPC: 1.40432 (Simulation time: 3 hr 52 min 23 sec) 
 Total Blocks : 262144 Invalid Blocks : 0
Heartbeat CPU 1 instructions: 200000002 cycles: 142417940 heartbeat IPC: 1.40501 cumulative IPC: 1.40432 (Simulation time: 3 hr 52 min 23 sec) 
 Total Blocks : 262144 Invalid Blocks : 0
Heartbeat CPU 3 instructions: 200000002 cycles: 142417950 heartbeat IPC: 1.40501 cumulative IPC: 1.40432 (Simulation time: 3 hr 52 min 23 sec) 
 Total Blocks : 262144 Invalid Blocks : 0
Heartbeat CPU 4 instructions: 200000002 cycles: 142417968 heartbeat IPC: 1.405 cumulative IPC: 1.40432 (Simulation time: 3 hr 52 min 23 sec) 
 Total Blocks : 262144 Invalid Blocks : 0
Heartbeat CPU 6 instructions: 200000002 cycles: 142417974 heartbeat IPC: 1.40501 cumulative IPC: 1.40432 (Simulation time: 3 hr 52 min 23 sec) 
 Total Blocks : 262144 Invalid Blocks : 0
Heartbeat CPU 5 instructions: 200000002 cycles: 142417984 heartbeat IPC: 1.40501 cumulative IPC: 1.40432 (Simulation time: 3 hr 52 min 24 sec) 
 Total Blocks : 262144 Invalid Blocks : 0
Heartbeat CPU 7 instructions: 200000002 cycles: 142418023 heartbeat IPC: 1.40501 cumulative IPC: 1.40432 (Simulation time: 3 hr 52 min 24 sec) 
 Total Blocks : 262144 Invalid Blocks : 0

Warmup complete CPU 0 instructions: 200000226 cycles: 142418023 (Simulation time: 3 hr 52 min 24 sec) 
Warmup complete CPU 1 instructions: 200000111 cycles: 142418023 (Simulation time: 3 hr 52 min 24 sec) 
Warmup complete CPU 2 instructions: 200000210 cycles: 142418023 (Simulation time: 3 hr 52 min 24 sec) 
Warmup complete CPU 3 instructions: 200000100 cycles: 142418023 (Simulation time: 3 hr 52 min 24 sec) 
Warmup complete CPU 4 instructions: 200000099 cycles: 142418023 (Simulation time: 3 hr 52 min 24 sec) 
Warmup complete CPU 5 instructions: 200000062 cycles: 142418023 (Simulation time: 3 hr 52 min 24 sec) 
Warmup complete CPU 6 instructions: 200000081 cycles: 142418023 (Simulation time: 3 hr 52 min 24 sec) 
Warmup complete CPU 7 instructions: 200000002 cycles: 142418023 (Simulation time: 3 hr 52 min 24 sec) 

Heartbeat CPU 7 instructions: 210000002 cycles: 162854139 heartbeat IPC: 0.48933 cumulative IPC: 0.48933 (Simulation time: 4 hr 12 min 53 sec) 
 Total Blocks : 262144 Invalid Blocks : 0
Heartbeat CPU 1 instructions: 210000002 cycles: 162870534 heartbeat IPC: 0.488936 cumulative IPC: 0.488932 (Simulation time: 4 hr 12 min 54 sec) 
 Total Blocks : 262144 Invalid Blocks : 0
Heartbeat CPU 0 instructions: 210000002 cycles: 162909068 heartbeat IPC: 0.488014 cumulative IPC: 0.488007 (Simulation time: 4 hr 12 min 56 sec) 
 Total Blocks : 262144 Invalid Blocks : 0
Heartbeat CPU 6 instructions: 210000002 cycles: 163024057 heartbeat IPC: 0.485294 cumulative IPC: 0.485291 (Simulation time: 4 hr 13 min 2 sec) 
 Total Blocks : 262144 Invalid Blocks : 0
Heartbeat CPU 4 instructions: 210000002 cycles: 163085224 heartbeat IPC: 0.483857 cumulative IPC: 0.483854 (Simulation time: 4 hr 13 min 5 sec) 
 Total Blocks : 262144 Invalid Blocks : 0
Heartbeat CPU 3 instructions: 210000002 cycles: 163228323 heartbeat IPC: 0.48053 cumulative IPC: 0.480527 (Simulation time: 4 hr 13 min 13 sec) 
 Total Blocks : 262144 Invalid Blocks : 0
Heartbeat CPU 5 instructions: 210000002 cycles: 163244731 heartbeat IPC: 0.480152 cumulative IPC: 0.48015 (Simulation time: 4 hr 13 min 14 sec) 
 Total Blocks : 262144 Invalid Blocks : 0
Heartbeat CPU 2 instructions: 210000002 cycles: 163419846 heartbeat IPC: 0.476146 cumulative IPC: 0.476139 (Simulation time: 4 hr 13 min 24 sec) 
 Total Blocks : 262144 Invalid Blocks : 0
Heartbeat CPU 7 instructions: 220000000 cycles: 184877922 heartbeat IPC: 0.454055 cumulative IPC: 0.471033 (Simulation time: 4 hr 34 min 30 sec) 
 Total Blocks : 262144 Invalid Blocks : 0
Heartbeat CPU 1 instructions: 220000000 cycles: 184916938 heartbeat IPC: 0.453589 cumulative IPC: 0.470598 (Simulation time: 4 hr 34 min 32 sec) 
 Total Blocks : 262144 Invalid Blocks : 0
Heartbeat CPU 0 instructions: 220000000 cycles: 185070265 heartbeat IPC: 0.451239 cumulative IPC: 0.468903 (Simulation time: 4 hr 34 min 41 sec) 
 Total Blocks : 262144 Invalid Blocks : 0
Heartbeat CPU 6 instructions: 220000000 cycles: 185095527 heartbeat IPC: 0.453074 cumulative IPC: 0.468629 (Simulation time: 4 hr 34 min 43 sec) 
 Total Blocks : 262144 Invalid Blocks : 0
Heartbeat CPU 4 instructions: 220000000 cycles: 185120308 heartbeat IPC: 0.453822 cumulative IPC: 0.468357 (Simulation time: 4 hr 34 min 45 sec) 
 Total Blocks : 262144 Invalid Blocks : 0
Heartbeat CPU 3 instructions: 220000000 cycles: 185361722 heartbeat IPC: 0.451806 cumulative IPC: 0.465724 (Simulation time: 4 hr 35 min 0 sec) 
 Total Blocks : 262144 Invalid Blocks : 0
Heartbeat CPU 5 instructions: 220000000 cycles: 185410537 heartbeat IPC: 0.451145 cumulative IPC: 0.465196 (Simulation time: 4 hr 35 min 3 sec) 
 Total Blocks : 262144 Invalid Blocks : 0
Heartbeat CPU 2 instructions: 220000000 cycles: 185595809 heartbeat IPC: 0.450939 cumulative IPC: 0.463196 (Simulation time: 4 hr 35 min 14 sec) 
 Total Blocks : 262144 Invalid Blocks : 0
Heartbeat CPU 7 instructions: 230000001 cycles: 206891020 heartbeat IPC: 0.454275 cumulative IPC: 0.465311 (Simulation time: 4 hr 56 min 9 sec) 
 Total Blocks : 262144 Invalid Blocks : 0
Heartbeat CPU 0 instructions: 230000001 cycles: 206906131 heartbeat IPC: 0.457962 cumulative IPC: 0.465199 (Simulation time: 4 hr 56 min 10 sec) 
 Total Blocks : 262144 Invalid Blocks : 0
Heartbeat CPU 1 instructions: 230000001 cycles: 206915808 heartbeat IPC: 0.454569 cumulative IPC: 0.465131 (Simulation time: 4 hr 56 min 11 sec) 
 Total Blocks : 262144 Invalid Blocks : 0
Heartbeat CPU 6 instructions: 230000001 cycles: 206996684 heartbeat IPC: 0.456597 cumulative IPC: 0.464548 (Simulation time: 4 hr 56 min 16 sec) 
 Total Blocks : 262144 Invalid Blocks : 0
Heartbeat CPU 4 instructions: 230000001 cycles: 207211939 heartbeat IPC: 0.45266 cumulative IPC: 0.463005 (Simulation time: 4 hr 56 min 31 sec) 
 Total Blocks : 262144 Invalid Blocks : 0
Heartbeat CPU 3 instructions: 230000001 cycles: 207421058 heartbeat IPC: 0.453323 cumulative IPC: 0.461515 (Simulation time: 4 hr 56 min 43 sec) 
 Total Blocks : 262144 Invalid Blocks : 0
Heartbeat CPU 5 instructions: 230000001 cycles: 207462969 heartbeat IPC: 0.453465 cumulative IPC: 0.461219 (Simulation time: 4 hr 56 min 45 sec) 
 Total Blocks : 262144 Invalid Blocks : 0
Heartbeat CPU 2 instructions: 230000001 cycles: 207642551 heartbeat IPC: 0.453582 cumulative IPC: 0.459946 (Simulation time: 4 hr 56 min 57 sec) 
 Total Blocks : 262144 Invalid Blocks : 0
Heartbeat CPU 7 instructions: 240000002 cycles: 227979795 heartbeat IPC: 0.474186 cumulative IPC: 0.467499 (Simulation time: 5 hr 17 min 6 sec) 
 Total Blocks : 262144 Invalid Blocks : 0
Heartbeat CPU 0 instructions: 240000002 cycles: 227999274 heartbeat IPC: 0.474088 cumulative IPC: 0.467389 (Simulation time: 5 hr 17 min 7 sec) 
 Total Blocks : 262144 Invalid Blocks : 0
Heartbeat CPU 1 instructions: 240000002 cycles: 228150182 heartbeat IPC: 0.470935 cumulative IPC: 0.466568 (Simulation time: 5 hr 17 min 17 sec) 
 Total Blocks : 262144 Invalid Blocks : 0
Heartbeat CPU 6 instructions: 240000002 cycles: 228246423 heartbeat IPC: 0.470594 cumulative IPC: 0.466045 (Simulation time: 5 hr 17 min 24 sec) 
 Total Blocks : 262144 Invalid Blocks : 0
Heartbeat CPU 4 instructions: 240000002 cycles: 228499648 heartbeat IPC: 0.469755 cumulative IPC: 0.464674 (Simulation time: 5 hr 17 min 39 sec) 
 Total Blocks : 262144 Invalid Blocks : 0
Heartbeat CPU 3 instructions: 240000002 cycles: 228569447 heartbeat IPC: 0.472849 cumulative IPC: 0.464298 (Simulation time: 5 hr 17 min 44 sec) 
 Total Blocks : 262144 Invalid Blocks : 0
Heartbeat CPU 5 instructions: 240000002 cycles: 228581632 heartbeat IPC: 0.473515 cumulative IPC: 0.464232 (Simulation time: 5 hr 17 min 45 sec) 
 Total Blocks : 262144 Invalid Blocks : 0
Heartbeat CPU 2 instructions: 240000002 cycles: 228860564 heartbeat IPC: 0.471298 cumulative IPC: 0.462733 (Simulation time: 5 hr 18 min 3 sec) 
 Total Blocks : 262144 Invalid Blocks : 0
Heartbeat CPU 7 instructions: 250000000 cycles: 250143043 heartbeat IPC: 0.451197 cumulative IPC: 0.464145 (Simulation time: 5 hr 39 min 8 sec) 
 Total Blocks : 262144 Invalid Blocks : 0
Heartbeat CPU 0 instructions: 250000000 cycles: 250165455 heartbeat IPC: 0.451138 cumulative IPC: 0.464046 (Simulation time: 5 hr 39 min 9 sec) 
 Total Blocks : 262144 Invalid Blocks : 0
Heartbeat CPU 1 instructions: 250000000 cycles: 250472172 heartbeat IPC: 0.447989 cumulative IPC: 0.46273 (Simulation time: 5 hr 39 min 28 sec) 
 Total Blocks : 262144 Invalid Blocks : 0
Heartbeat CPU 6 instructions: 250000000 cycles: 250600110 heartbeat IPC: 0.447353 cumulative IPC: 0.462183 (Simulation time: 5 hr 39 min 38 sec) 
 Total Blocks : 262144 Invalid Blocks : 0
Heartbeat CPU 5 instructions: 250000000 cycles: 250762453 heartbeat IPC: 0.45084 cumulative IPC: 0.461491 (Simulation time: 5 hr 39 min 48 sec) 
 Total Blocks : 262144 Invalid Blocks : 0
Heartbeat CPU 4 instructions: 250000000 cycles: 250774416 heartbeat IPC: 0.448938 cumulative IPC: 0.461439 (Simulation time: 5 hr 39 min 48 sec) 
 Total Blocks : 262144 Invalid Blocks : 0
Heartbeat CPU 3 instructions: 250000000 cycles: 250889100 heartbeat IPC: 0.448036 cumulative IPC: 0.460951 (Simulation time: 5 hr 39 min 56 sec) 
 Total Blocks : 262144 Invalid Blocks : 0
Heartbeat CPU 2 instructions: 250000000 cycles: 251204827 heartbeat IPC: 0.447542 cumulative IPC: 0.459613 (Simulation time: 5 hr 40 min 15 sec) 
 Total Blocks : 262144 Invalid Blocks : 0
Heartbeat CPU 7 instructions: 260000001 cycles: 271557725 heartbeat IPC: 0.466969 cumulative IPC: 0.464613 (Simulation time: 6 hr 0 min 38 sec) 
 Total Blocks : 262144 Invalid Blocks : 0
Heartbeat CPU 0 instructions: 260000001 cycles: 271579789 heartbeat IPC: 0.466977 cumulative IPC: 0.464532 (Simulation time: 6 hr 0 min 39 sec) 
 Total Blocks : 262144 Invalid Blocks : 0
Heartbeat CPU 1 instructions: 260000001 cycles: 272048222 heartbeat IPC: 0.463477 cumulative IPC: 0.462854 (Simulation time: 6 hr 1 min 4 sec) 
 Total Blocks : 262144 Invalid Blocks : 0
Heartbeat CPU 5 instructions: 260000001 cycles: 272087812 heartbeat IPC: 0.468925 cumulative IPC: 0.462713 (Simulation time: 6 hr 1 min 6 sec) 
 Total Blocks : 262144 Invalid Blocks : 0
Heartbeat CPU 6 instructions: 260000001 cycles: 272106711 heartbeat IPC: 0.464974 cumulative IPC: 0.462646 (Simulation time: 6 hr 1 min 7 sec) 
 Total Blocks : 262144 Invalid Blocks : 0
Heartbeat CPU 4 instructions: 260000001 cycles: 272181777 heartbeat IPC: 0.467129 cumulative IPC: 0.462378 (Simulation time: 6 hr 1 min 11 sec) 
 Total Blocks : 262144 Invalid Blocks : 0
Heartbeat CPU 3 instructions: 260000001 cycles: 272402627 heartbeat IPC: 0.464824 cumulative IPC: 0.461592 (Simulation time: 6 hr 1 min 23 sec) 
 Total Blocks : 262144 Invalid Blocks : 0
Heartbeat CPU 2 instructions: 260000001 cycles: 272692340 heartbeat IPC: 0.465387 cumulative IPC: 0.460565 (Simulation time: 6 hr 1 min 40 sec) 
 Total Blocks : 262144 Invalid Blocks : 0
Heartbeat CPU 7 instructions: 270000002 cycles: 294350729 heartbeat IPC: 0.438731 cumulative IPC: 0.46073 (Simulation time: 6 hr 22 min 51 sec) 
 Total Blocks : 262144 Invalid Blocks : 0
Heartbeat CPU 0 instructions: 270000002 cycles: 294380746 heartbeat IPC: 0.438578 cumulative IPC: 0.460638 (Simulation time: 6 hr 22 min 53 sec) 
 Total Blocks : 262144 Invalid Blocks : 0
Heartbeat CPU 5 instructions: 270000002 cycles: 294844276 heartbeat IPC: 0.439436 cumulative IPC: 0.459238 (Simulation time: 6 hr 23 min 18 sec) 
 Total Blocks : 262144 Invalid Blocks : 0
Heartbeat CPU 1 instructions: 270000002 cycles: 294850467 heartbeat IPC: 0.438553 cumulative IPC: 0.459219 (Simulation time: 6 hr 23 min 18 sec) 
 Total Blocks : 262144 Invalid Blocks : 0
Heartbeat CPU 6 instructions: 270000002 cycles: 295041010 heartbeat IPC: 0.436028 cumulative IPC: 0.458646 (Simulation time: 6 hr 23 min 28 sec) 
 Total Blocks : 262144 Invalid Blocks : 0
Heartbeat CPU 4 instructions: 270000002 cycles: 295148520 heartbeat IPC: 0.435412 cumulative IPC: 0.458323 (Simulation time: 6 hr 23 min 34 sec) 
 Total Blocks : 262144 Invalid Blocks : 0
Heartbeat CPU 3 instructions: 270000002 cycles: 295389807 heartbeat IPC: 0.435025 cumulative IPC: 0.4576 (Simulation time: 6 hr 23 min 47 sec) 
 Total Blocks : 262144 Invalid Blocks : 0
Heartbeat CPU 2 instructions: 270000002 cycles: 295715405 heartbeat IPC: 0.434347 cumulative IPC: 0.456627 (Simulation time: 6 hr 24 min 6 sec) 
 Total Blocks : 262144 Invalid Blocks : 0
Heartbeat CPU 7 instructions: 280000001 cycles: 317757933 heartbeat IPC: 0.427219 cumulative IPC: 0.456257 (Simulation time: 6 hr 44 min 34 sec) 
 Total Blocks : 262144 Invalid Blocks : 0
Heartbeat CPU 0 instructions: 280000001 cycles: 317783990 heartbeat IPC: 0.427291 cumulative IPC: 0.456188 (Simulation time: 6 hr 44 min 36 sec) 
 Total Blocks : 262144 Invalid Blocks : 0
Heartbeat CPU 1 instructions: 280000001 cycles: 318105730 heartbeat IPC: 0.43001 cumulative IPC: 0.455353 (Simulation time: 6 hr 44 min 56 sec) 
 Total Blocks : 262144 Invalid Blocks : 0
Heartbeat CPU 5 instructions: 280000001 cycles: 318112505 heartbeat IPC: 0.429771 cumulative IPC: 0.455336 (Simulation time: 6 hr 44 min 57 sec) 
 Total Blocks : 262144 Invalid Blocks : 0
Heartbeat CPU 6 instructions: 280000001 cycles: 318461163 heartbeat IPC: 0.426983 cumulative IPC: 0.454434 (Simulation time: 6 hr 45 min 20 sec) 
 Total Blocks : 262144 Invalid Blocks : 0
Heartbeat CPU 4 instructions: 280000001 cycles: 318588844 heartbeat IPC: 0.426615 cumulative IPC: 0.454104 (Simulation time: 6 hr 45 min 29 sec) 
 Total Blocks : 262144 Invalid Blocks : 0
Heartbeat CPU 3 instructions: 280000001 cycles: 318781996 heartbeat IPC: 0.427493 cumulative IPC: 0.453607 (Simulation time: 6 hr 45 min 42 sec) 
 Total Blocks : 262144 Invalid Blocks : 0
Heartbeat CPU 2 instructions: 280000001 cycles: 319090167 heartbeat IPC: 0.427812 cumulative IPC: 0.452815 (Simulation time: 6 hr 46 min 1 sec) 
 Total Blocks : 262144 Invalid Blocks : 0
Heartbeat CPU 7 instructions: 290000000 cycles: 339406405 heartbeat IPC: 0.461926 cumulative IPC: 0.45688 (Simulation time: 7 hr 6 min 10 sec) 
 Total Blocks : 262144 Invalid Blocks : 0
Heartbeat CPU 0 instructions: 290000000 cycles: 339493843 heartbeat IPC: 0.46062 cumulative IPC: 0.456676 (Simulation time: 7 hr 6 min 15 sec) 
 Total Blocks : 262144 Invalid Blocks : 0
Heartbeat CPU 5 instructions: 290000000 cycles: 339703533 heartbeat IPC: 0.463155 cumulative IPC: 0.456191 (Simulation time: 7 hr 6 min 27 sec) 
 Total Blocks : 262144 Invalid Blocks : 0
Heartbeat CPU 1 instructions: 290000000 cycles: 339745297 heartbeat IPC: 0.462116 cumulative IPC: 0.456095 (Simulation time: 7 hr 6 min 30 sec) 
 Total Blocks : 262144 Invalid Blocks : 0
Heartbeat CPU 6 instructions: 290000000 cycles: 340119896 heartbeat IPC: 0.461707 cumulative IPC: 0.45523 (Simulation time: 7 hr 6 min 52 sec) 
 Total Blocks : 262144 Invalid Blocks : 0
Heartbeat CPU 4 instructions: 290000000 cycles: 340248952 heartbeat IPC: 0.461678 cumulative IPC: 0.454933 (Simulation time: 7 hr 6 min 59 sec) 
 Total Blocks : 262144 Invalid Blocks : 0
Heartbeat CPU 3 instructions: 290000000 cycles: 340440241 heartbeat IPC: 0.461718 cumulative IPC: 0.454494 (Simulation time: 7 hr 7 min 11 sec) 
 Total Blocks : 262144 Invalid Blocks : 0
Heartbeat CPU 2 instructions: 290000000 cycles: 340765743 heartbeat IPC: 0.461349 cumulative IPC: 0.453748 (Simulation time: 7 hr 7 min 33 sec) 
 Total Blocks : 262144 Invalid Blocks : 0
Heartbeat CPU 7 instructions: 300000001 cycles: 361803234 heartbeat IPC: 0.446492 cumulative IPC: 0.455819 (Simulation time: 7 hr 29 min 1 sec) 
 Total Blocks : 262144 Invalid Blocks : 0
Heartbeat CPU 0 instructions: 300000001 cycles: 361891296 heartbeat IPC: 0.446479 cumulative IPC: 0.455635 (Simulation time: 7 hr 29 min 6 sec) 
 Total Blocks : 262144 Invalid Blocks : 0
Heartbeat CPU 5 instructions: 300000001 cycles: 361980162 heartbeat IPC: 0.448901 cumulative IPC: 0.455452 (Simulation time: 7 hr 29 min 11 sec) 
 Total Blocks : 262144 Invalid Blocks : 0
Heartbeat CPU 1 instructions: 300000001 cycles: 362005608 heartbeat IPC: 0.44923 cumulative IPC: 0.455399 (Simulation time: 7 hr 29 min 13 sec) 
 Total Blocks : 262144 Invalid Blocks : 0
Heartbeat CPU 6 instructions: 300000001 cycles: 362494276 heartbeat IPC: 0.44694 cumulative IPC: 0.454388 (Simulation time: 7 hr 29 min 40 sec) 
 Total Blocks : 262144 Invalid Blocks : 0
Heartbeat CPU 4 instructions: 300000001 cycles: 362574739 heartbeat IPC: 0.447913 cumulative IPC: 0.454221 (Simulation time: 7 hr 29 min 44 sec) 
 Total Blocks : 262144 Invalid Blocks : 0
Heartbeat CPU 3 instructions: 300000001 cycles: 362801317 heartbeat IPC: 0.447206 cumulative IPC: 0.453754 (Simulation time: 7 hr 29 min 57 sec) 
 Total Blocks : 262144 Invalid Blocks : 0
Heartbeat CPU 2 instructions: 300000001 cycles: 363112589 heartbeat IPC: 0.44749 cumulative IPC: 0.453114 (Simulation time: 7 hr 30 min 15 sec) 
 Total Blocks : 262144 Invalid Blocks : 0
Heartbeat CPU 7 instructions: 310000003 cycles: 384758145 heartbeat IPC: 0.435637 cumulative IPC: 0.453908 (Simulation time: 7 hr 52 min 2 sec) 
 Total Blocks : 262144 Invalid Blocks : 0
Heartbeat CPU 0 instructions: 310000003 cycles: 384773122 heartbeat IPC: 0.437028 cumulative IPC: 0.453879 (Simulation time: 7 hr 52 min 3 sec) 
 Total Blocks : 262144 Invalid Blocks : 0
Heartbeat CPU 5 instructions: 310000003 cycles: 384786557 heartbeat IPC: 0.438474 cumulative IPC: 0.453854 (Simulation time: 7 hr 52 min 4 sec) 
 Total Blocks : 262144 Invalid Blocks : 0
Heartbeat CPU 1 instructions: 310000003 cycles: 384864130 heartbeat IPC: 0.437474 cumulative IPC: 0.453709 (Simulation time: 7 hr 52 min 8 sec) 
 Total Blocks : 262144 Invalid Blocks : 0
Heartbeat CPU 6 instructions: 310000003 cycles: 385420564 heartbeat IPC: 0.436181 cumulative IPC: 0.45267 (Simulation time: 7 hr 52 min 41 sec) 
 Total Blocks : 262144 Invalid Blocks : 0
Heartbeat CPU 4 instructions: 310000003 cycles: 385471869 heartbeat IPC: 0.436736 cumulative IPC: 0.452574 (Simulation time: 7 hr 52 min 44 sec) 
 Total Blocks : 262144 Invalid Blocks : 0
Heartbeat CPU 3 instructions: 310000003 cycles: 385664227 heartbeat IPC: 0.43739 cumulative IPC: 0.452216 (Simulation time: 7 hr 52 min 55 sec) 
 Total Blocks : 262144 Invalid Blocks : 0
Heartbeat CPU 2 instructions: 310000003 cycles: 385966634 heartbeat IPC: 0.437559 cumulative IPC: 0.451654 (Simulation time: 7 hr 53 min 13 sec) 
 Total Blocks : 262144 Invalid Blocks : 0
Heartbeat CPU 0 instructions: 320000000 cycles: 407445728 heartbeat IPC: 0.441061 cumulative IPC: 0.452782 (Simulation time: 8 hr 14 min 15 sec) 
 Total Blocks : 262144 Invalid Blocks : 0
Heartbeat CPU 7 instructions: 320000000 cycles: 407475302 heartbeat IPC: 0.440196 cumulative IPC: 0.452732 (Simulation time: 8 hr 14 min 16 sec) 
 Total Blocks : 262144 Invalid Blocks : 0
Heartbeat CPU 5 instructions: 320000000 cycles: 407674691 heartbeat IPC: 0.436907 cumulative IPC: 0.452392 (Simulation time: 8 hr 14 min 28 sec) 
 Total Blocks : 262144 Invalid Blocks : 0
Heartbeat CPU 1 instructions: 320000000 cycles: 407769930 heartbeat IPC: 0.436571 cumulative IPC: 0.452229 (Simulation time: 8 hr 14 min 34 sec) 
 Total Blocks : 262144 Invalid Blocks : 0
Heartbeat CPU 6 instructions: 320000000 cycles: 408283815 heartbeat IPC: 0.437383 cumulative IPC: 0.451355 (Simulation time: 8 hr 15 min 7 sec) 
 Total Blocks : 262144 Invalid Blocks : 0
Heartbeat CPU 4 instructions: 320000000 cycles: 408337419 heartbeat IPC: 0.437339 cumulative IPC: 0.451264 (Simulation time: 8 hr 15 min 10 sec) 
 Total Blocks : 262144 Invalid Blocks : 0
Heartbeat CPU 3 instructions: 320000000 cycles: 408500136 heartbeat IPC: 0.437907 cumulative IPC: 0.450988 (Simulation time: 8 hr 15 min 22 sec) 
 Total Blocks : 262144 Invalid Blocks : 0
Heartbeat CPU 2 instructions: 320000000 cycles: 408752730 heartbeat IPC: 0.438864 cumulative IPC: 0.45056 (Simulation time: 8 hr 15 min 38 sec) 
 Total Blocks : 262144 Invalid Blocks : 0
Heartbeat CPU 0 instructions: 330000000 cycles: 429305989 heartbeat IPC: 0.457451 cumulative IPC: 0.453138 (Simulation time: 8 hr 36 min 29 sec) 
 Total Blocks : 262144 Invalid Blocks : 0
Heartbeat CPU 7 instructions: 330000000 cycles: 429348175 heartbeat IPC: 0.457187 cumulative IPC: 0.453072 (Simulation time: 8 hr 36 min 31 sec) 
 Total Blocks : 262144 Invalid Blocks : 0
Heartbeat CPU 5 instructions: 330000000 cycles: 429504214 heartbeat IPC: 0.458095 cumulative IPC: 0.452825 (Simulation time: 8 hr 36 min 39 sec) 
 Total Blocks : 262144 Invalid Blocks : 0
Heartbeat CPU 1 instructions: 330000000 cycles: 429621258 heartbeat IPC: 0.457638 cumulative IPC: 0.452641 (Simulation time: 8 hr 36 min 45 sec) 
 Total Blocks : 262144 Invalid Blocks : 0
Heartbeat CPU 6 instructions: 330000000 cycles: 430128515 heartbeat IPC: 0.457777 cumulative IPC: 0.451843 (Simulation time: 8 hr 37 min 10 sec) 
 Total Blocks : 262144 Invalid Blocks : 0
Heartbeat CPU 4 instructions: 330000000 cycles: 430217059 heartbeat IPC: 0.457046 cumulative IPC: 0.451704 (Simulation time: 8 hr 37 min 14 sec) 
 Total Blocks : 262144 Invalid Blocks : 0
Heartbeat CPU 3 instructions: 330000000 cycles: 430375516 heartbeat IPC: 0.457135 cumulative IPC: 0.451455 (Simulation time: 8 hr 37 min 22 sec) 
 Total Blocks : 262144 Invalid Blocks : 0
Heartbeat CPU 2 instructions: 330000000 cycles: 430585873 heartbeat IPC: 0.458019 cumulative IPC: 0.451125 (Simulation time: 8 hr 37 min 34 sec) 
 Total Blocks : 262144 Invalid Blocks : 0
Heartbeat CPU 0 instructions: 340000002 cycles: 451180219 heartbeat IPC: 0.457159 cumulative IPC: 0.453423 (Simulation time: 8 hr 58 min 3 sec) 
 Total Blocks : 262144 Invalid Blocks : 0
Heartbeat CPU 7 instructions: 340000002 cycles: 451216771 heartbeat IPC: 0.457277 cumulative IPC: 0.45337 (Simulation time: 8 hr 58 min 5 sec) 
 Total Blocks : 262144 Invalid Blocks : 0
Heartbeat CPU 5 instructions: 340000002 cycles: 451477290 heartbeat IPC: 0.455103 cumulative IPC: 0.452987 (Simulation time: 8 hr 58 min 22 sec) 
 Total Blocks : 262144 Invalid Blocks : 0
Heartbeat CPU 1 instructions: 340000002 cycles: 451590284 heartbeat IPC: 0.455186 cumulative IPC: 0.452822 (Simulation time: 8 hr 58 min 29 sec) 
 Total Blocks : 262144 Invalid Blocks : 0
Heartbeat CPU 6 instructions: 340000002 cycles: 452019282 heartbeat IPC: 0.456814 cumulative IPC: 0.452194 (Simulation time: 8 hr 58 min 56 sec) 
 Total Blocks : 262144 Invalid Blocks : 0
Heartbeat CPU 4 instructions: 340000002 cycles: 452119305 heartbeat IPC: 0.456574 cumulative IPC: 0.452048 (Simulation time: 8 hr 59 min 2 sec) 
 Total Blocks : 262144 Invalid Blocks : 0
Heartbeat CPU 3 instructions: 340000002 cycles: 452264114 heartbeat IPC: 0.456859 cumulative IPC: 0.451837 (Simulation time: 8 hr 59 min 11 sec) 
 Total Blocks : 262144 Invalid Blocks : 0
Heartbeat CPU 2 instructions: 340000002 cycles: 452486525 heartbeat IPC: 0.456607 cumulative IPC: 0.451512 (Simulation time: 8 hr 59 min 24 sec) 
 Total Blocks : 262144 Invalid Blocks : 0
Heartbeat CPU 0 instructions: 350000001 cycles: 472200890 heartbeat IPC: 0.475722 cumulative IPC: 0.454844 (Simulation time: 9 hr 19 min 25 sec) 
 Total Blocks : 262144 Invalid Blocks : 0
Heartbeat CPU 7 instructions: 350000001 cycles: 472251227 heartbeat IPC: 0.47541 cumulative IPC: 0.454775 (Simulation time: 9 hr 19 min 28 sec) 
 Total Blocks : 262144 Invalid Blocks : 0
Heartbeat CPU 5 instructions: 350000001 cycles: 472674089 heartbeat IPC: 0.471769 cumulative IPC: 0.454193 (Simulation time: 9 hr 19 min 52 sec) 
 Total Blocks : 262144 Invalid Blocks : 0
Heartbeat CPU 1 instructions: 350000001 cycles: 472782262 heartbeat IPC: 0.471877 cumulative IPC: 0.454044 (Simulation time: 9 hr 19 min 59 sec) 
 Total Blocks : 262144 Invalid Blocks : 0
Heartbeat CPU 6 instructions: 350000001 cycles: 473293328 heartbeat IPC: 0.470056 cumulative IPC: 0.453343 (Simulation time: 9 hr 20 min 29 sec) 
 Total Blocks : 262144 Invalid Blocks : 0
Heartbeat CPU 4 instructions: 350000001 cycles: 473360577 heartbeat IPC: 0.470782 cumulative IPC: 0.453251 (Simulation time: 9 hr 20 min 33 sec) 
 Total Blocks : 262144 Invalid Blocks : 0
Heartbeat CPU 3 instructions: 350000001 cycles: 473450452 heartbeat IPC: 0.472002 cumulative IPC: 0.453128 (Simulation time: 9 hr 20 min 37 sec) 
 Total Blocks : 262144 Invalid Blocks : 0
Heartbeat CPU 2 instructions: 350000001 cycles: 473761133 heartbeat IPC: 0.470044 cumulative IPC: 0.452702 (Simulation time: 9 hr 20 min 52 sec) 
 Total Blocks : 262144 Invalid Blocks : 0
Heartbeat CPU 0 instructions: 360000000 cycles: 495208445 heartbeat IPC: 0.43464 cumulative IPC: 0.453526 (Simulation time: 9 hr 41 min 35 sec) 
 Total Blocks : 262144 Invalid Blocks : 0
Heartbeat CPU 7 instructions: 360000000 cycles: 495265078 heartbeat IPC: 0.434521 cumulative IPC: 0.453454 (Simulation time: 9 hr 41 min 39 sec) 
 Total Blocks : 262144 Invalid Blocks : 0
Heartbeat CPU 5 instructions: 360000000 cycles: 495717985 heartbeat IPC: 0.433954 cumulative IPC: 0.452873 (Simulation time: 9 hr 42 min 2 sec) 
 Total Blocks : 262144 Invalid Blocks : 0
Heartbeat CPU 1 instructions: 360000000 cycles: 495756305 heartbeat IPC: 0.435274 cumulative IPC: 0.452824 (Simulation time: 9 hr 42 min 4 sec) 
 Total Blocks : 262144 Invalid Blocks : 0
Heartbeat CPU 6 instructions: 360000000 cycles: 496267162 heartbeat IPC: 0.435278 cumulative IPC: 0.45217 (Simulation time: 9 hr 42 min 30 sec) 
 Total Blocks : 262144 Invalid Blocks : 0
Heartbeat CPU 4 instructions: 360000000 cycles: 496311871 heartbeat IPC: 0.435705 cumulative IPC: 0.452113 (Simulation time: 9 hr 42 min 33 sec) 
 Total Blocks : 262144 Invalid Blocks : 0
Heartbeat CPU 3 instructions: 360000000 cycles: 496438982 heartbeat IPC: 0.434999 cumulative IPC: 0.45195 (Simulation time: 9 hr 42 min 39 sec) 
 Total Blocks : 262144 Invalid Blocks : 0
Heartbeat CPU 2 instructions: 360000000 cycles: 496739780 heartbeat IPC: 0.435187 cumulative IPC: 0.451566 (Simulation time: 9 hr 42 min 57 sec) 
 Total Blocks : 262144 Invalid Blocks : 0
Heartbeat CPU 0 instructions: 370000001 cycles: 517359396 heartbeat IPC: 0.451448 cumulative IPC: 0.453404 (Simulation time: 10 hr 2 min 39 sec) 
 Total Blocks : 262144 Invalid Blocks : 0
Heartbeat CPU 7 instructions: 370000001 cycles: 517388611 heartbeat IPC: 0.452007 cumulative IPC: 0.453369 (Simulation time: 10 hr 2 min 41 sec) 
 Total Blocks : 262144 Invalid Blocks : 0
Heartbeat CPU 5 instructions: 370000001 cycles: 517792211 heartbeat IPC: 0.453017 cumulative IPC: 0.452881 (Simulation time: 10 hr 3 min 2 sec) 
 Total Blocks : 262144 Invalid Blocks : 0
Heartbeat CPU 1 instructions: 370000001 cycles: 517827519 heartbeat IPC: 0.453079 cumulative IPC: 0.452839 (Simulation time: 10 hr 3 min 4 sec) 
 Total Blocks : 262144 Invalid Blocks : 0
Heartbeat CPU 6 instructions: 370000001 cycles: 518378229 heartbeat IPC: 0.452262 cumulative IPC: 0.452175 (Simulation time: 10 hr 3 min 32 sec) 
 Total Blocks : 262144 Invalid Blocks : 0
Heartbeat CPU 4 instructions: 370000001 cycles: 518384076 heartbeat IPC: 0.453059 cumulative IPC: 0.452168 (Simulation time: 10 hr 3 min 32 sec) 
 Total Blocks : 262144 Invalid Blocks : 0
Heartbeat CPU 3 instructions: 370000001 cycles: 518522193 heartbeat IPC: 0.452833 cumulative IPC: 0.452002 (Simulation time: 10 hr 3 min 39 sec) 
 Total Blocks : 262144 Invalid Blocks : 0
Heartbeat CPU 2 instructions: 370000001 cycles: 518859491 heartbeat IPC: 0.452086 cumulative IPC: 0.451597 (Simulation time: 10 hr 3 min 56 sec) 
 Total Blocks : 262144 Invalid Blocks : 0
Heartbeat CPU 0 instructions: 380000001 cycles: 541178412 heartbeat IPC: 0.419833 cumulative IPC: 0.451398 (Simulation time: 10 hr 23 min 57 sec) 
 Total Blocks : 262144 Invalid Blocks : 0
Heartbeat CPU 7 instructions: 380000001 cycles: 541200847 heartbeat IPC: 0.419952 cumulative IPC: 0.451373 (Simulation time: 10 hr 23 min 58 sec) 
 Total Blocks : 262144 Invalid Blocks : 0
Heartbeat CPU 5 instructions: 380000001 cycles: 541706960 heartbeat IPC: 0.418152 cumulative IPC: 0.450801 (Simulation time: 10 hr 24 min 23 sec) 
 Total Blocks : 262144 Invalid Blocks : 0
Heartbeat CPU 1 instructions: 380000001 cycles: 541781607 heartbeat IPC: 0.417465 cumulative IPC: 0.450717 (Simulation time: 10 hr 24 min 27 sec) 
 Total Blocks : 262144 Invalid Blocks : 0
Heartbeat CPU 4 instructions: 380000001 cycles: 542191537 heartbeat IPC: 0.420036 cumulative IPC: 0.450255 (Simulation time: 10 hr 24 min 48 sec) 
 Total Blocks : 262144 Invalid Blocks : 0
Heartbeat CPU 6 instructions: 380000001 cycles: 542249540 heartbeat IPC: 0.418913 cumulative IPC: 0.450189 (Simulation time: 10 hr 24 min 52 sec) 
 Total Blocks : 262144 Invalid Blocks : 0
Heartbeat CPU 3 instructions: 380000001 cycles: 542512598 heartbeat IPC: 0.416833 cumulative IPC: 0.449893 (Simulation time: 10 hr 25 min 7 sec) 
 Total Blocks : 262144 Invalid Blocks : 0
Heartbeat CPU 2 instructions: 380000001 cycles: 542784966 heartbeat IPC: 0.417965 cumulative IPC: 0.449587 (Simulation time: 10 hr 25 min 21 sec) 
 Total Blocks : 262144 Invalid Blocks : 0
Heartbeat CPU 7 instructions: 390000000 cycles: 564254427 heartbeat IPC: 0.433772 cumulative IPC: 0.450412 (Simulation time: 10 hr 45 min 29 sec) 
 Total Blocks : 262144 Invalid Blocks : 0
Heartbeat CPU 0 instructions: 390000000 cycles: 564255824 heartbeat IPC: 0.433324 cumulative IPC: 0.45041 (Simulation time: 10 hr 45 min 29 sec) 
 Total Blocks : 262144 Invalid Blocks : 0
Heartbeat CPU 5 instructions: 390000000 cycles: 564910837 heartbeat IPC: 0.430962 cumulative IPC: 0.449712 (Simulation time: 10 hr 46 min 7 sec) 
 Total Blocks : 262144 Invalid Blocks : 0
Heartbeat CPU 1 instructions: 390000000 cycles: 565041713 heartbeat IPC: 0.429921 cumulative IPC: 0.449572 (Simulation time: 10 hr 46 min 13 sec) 
 Total Blocks : 262144 Invalid Blocks : 0
Heartbeat CPU 4 instructions: 390000000 cycles: 565427703 heartbeat IPC: 0.430364 cumulative IPC: 0.449162 (Simulation time: 10 hr 46 min 35 sec) 
 Total Blocks : 262144 Invalid Blocks : 0
Heartbeat CPU 6 instructions: 390000000 cycles: 565514852 heartbeat IPC: 0.429824 cumulative IPC: 0.44907 (Simulation time: 10 hr 46 min 40 sec) 
 Total Blocks : 262144 Invalid Blocks : 0
Heartbeat CPU 3 instructions: 390000000 cycles: 565727268 heartbeat IPC: 0.430762 cumulative IPC: 0.448844 (Simulation time: 10 hr 46 min 51 sec) 
 Total Blocks : 262144 Invalid Blocks : 0
Heartbeat CPU 2 instructions: 390000000 cycles: 566011806 heartbeat IPC: 0.430536 cumulative IPC: 0.448542 (Simulation time: 10 hr 47 min 6 sec) 
 Total Blocks : 262144 Invalid Blocks : 0
Heartbeat CPU 0 instructions: 400000002 cycles: 585468694 heartbeat IPC: 0.471412 cumulative IPC: 0.451415 (Simulation time: 11 hr 5 min 50 sec) 
 Total Blocks : 262144 Invalid Blocks : 0
Finished CPU 0 instructions: 200000002 cycles: 443051366 cumulative IPC: 0.451415 (Simulation time: 11 hr 5 min 50 sec) 
Heartbeat CPU 7 instructions: 400000002 cycles: 585485836 heartbeat IPC: 0.471 cumulative IPC: 0.451398 (Simulation time: 11 hr 5 min 51 sec) 
 Total Blocks : 262144 Invalid Blocks : 0
Finished CPU 7 instructions: 200000000 cycles: 443067813 cumulative IPC: 0.451398 (Simulation time: 11 hr 5 min 51 sec) 
Heartbeat CPU 5 instructions: 400000002 cycles: 586173916 heartbeat IPC: 0.470299 cumulative IPC: 0.450698 (Simulation time: 11 hr 6 min 31 sec) 
 Total Blocks : 262144 Invalid Blocks : 0
Finished CPU 5 instructions: 200000000 cycles: 443755979 cumulative IPC: 0.450698 (Simulation time: 11 hr 6 min 31 sec) 
Heartbeat CPU 1 instructions: 400000002 cycles: 586300373 heartbeat IPC: 0.470397 cumulative IPC: 0.45057 (Simulation time: 11 hr 6 min 37 sec) 
 Total Blocks : 262144 Invalid Blocks : 0
Finished CPU 1 instructions: 200000001 cycles: 443882511 cumulative IPC: 0.45057 (Simulation time: 11 hr 6 min 37 sec) 
Heartbeat CPU 4 instructions: 400000002 cycles: 586648165 heartbeat IPC: 0.471243 cumulative IPC: 0.450217 (Simulation time: 11 hr 6 min 58 sec) 
 Total Blocks : 262144 Invalid Blocks : 0
Finished CPU 4 instructions: 200000001 cycles: 444230297 cumulative IPC: 0.450217 (Simulation time: 11 hr 6 min 58 sec) 
Heartbeat CPU 6 instructions: 400000002 cycles: 586745987 heartbeat IPC: 0.471006 cumulative IPC: 0.450118 (Simulation time: 11 hr 7 min 3 sec) 
 Total Blocks : 262144 Invalid Blocks : 0
Finished CPU 6 instructions: 200000000 cycles: 444328109 cumulative IPC: 0.450118 (Simulation time: 11 hr 7 min 3 sec) 
Heartbeat CPU 3 instructions: 400000002 cycles: 586912398 heartbeat IPC: 0.472029 cumulative IPC: 0.449949 (Simulation time: 11 hr 7 min 12 sec) 
 Total Blocks : 262144 Invalid Blocks : 0
Finished CPU 3 instructions: 200000000 cycles: 444494530 cumulative IPC: 0.449949 (Simulation time: 11 hr 7 min 12 sec) 
Heartbeat CPU 2 instructions: 400000002 cycles: 587227455 heartbeat IPC: 0.47135 cumulative IPC: 0.44963 (Simulation time: 11 hr 7 min 28 sec) 
 Total Blocks : 262144 Invalid Blocks : 0
Finished CPU 2 instructions: 200000002 cycles: 444810092 cumulative IPC: 0.44963 (Simulation time: 11 hr 7 min 28 sec) 

CPU 0 Branch Prediction Accuracy: 94.8771% MPKI: 13.2723 Average ROB Occupancy at Mispredict: 72.5736

CPU 1 Branch Prediction Accuracy: 94.8772% MPKI: 13.272 Average ROB Occupancy at Mispredict: 72.5735

CPU 2 Branch Prediction Accuracy: 94.8773% MPKI: 13.2717 Average ROB Occupancy at Mispredict: 72.5757

CPU 3 Branch Prediction Accuracy: 94.8773% MPKI: 13.2718 Average ROB Occupancy at Mispredict: 72.5716

CPU 4 Branch Prediction Accuracy: 94.8772% MPKI: 13.272 Average ROB Occupancy at Mispredict: 72.5759

CPU 5 Branch Prediction Accuracy: 94.8772% MPKI: 13.2721 Average ROB Occupancy at Mispredict: 72.5715

CPU 6 Branch Prediction Accuracy: 94.8772% MPKI: 13.2719 Average ROB Occupancy at Mispredict: 72.5724

CPU 7 Branch Prediction Accuracy: 94.8771% MPKI: 13.2723 Average ROB Occupancy at Mispredict: 72.5714

ChampSim completed all CPUs

Total Simulation Statistics (not including warmup)

CPU 0 cumulative IPC: 0.451297 instructions: 200741561 cycles: 444810092
ITLB TOTAL     ACCESS: 25767577  HIT: 25767577  MISS:     0  HIT %:   100  MISS %:     0  AVERAGE MISS PENALTY: 0
ITLB LOAD      ACCESS: 25767577  HIT: 25767577  MISS:     0  HIT %:   100  MISS %:     0  AVERAGE MISS PENALTY: 0
ITLB RFO       ACCESS:     0  HIT:     0  MISS:     0  HIT %:     0  MISS %:     0  AVERAGE MISS PENALTY: 0
ITLB PREFETCH  ACCESS:     0  HIT:     0  MISS:     0  HIT %:     0  MISS %:     0  AVERAGE MISS PENALTY: 0
ITLB WRITEBACK ACCESS:     0  HIT:     0  MISS:     0  HIT %:     0  MISS %:     0  AVERAGE MISS PENALTY: 0

DTLB TOTAL     ACCESS: 51242045  HIT: 51153702  MISS: 88343  HIT %: 99.8276  MISS %: 0.172403  AVERAGE MISS PENALTY: 9.2648
DTLB LOAD      ACCESS: 47688692  HIT: 47600349  MISS: 88343  HIT %: 99.8148  MISS %: 0.185249  AVERAGE MISS PENALTY: 9.2648
DTLB RFO       ACCESS: 3553353  HIT: 3553353  MISS:     0  HIT %:   100  MISS %:     0  AVERAGE MISS PENALTY: 0
DTLB PREFETCH  ACCESS:     0  HIT:     0  MISS:     0  HIT %:     0  MISS %:     0  AVERAGE MISS PENALTY: 0
DTLB WRITEBACK ACCESS:     0  HIT:     0  MISS:     0  HIT %:     0  MISS %:     0  AVERAGE MISS PENALTY: 0

STLB TOTAL     ACCESS: 88343  HIT: 88156  MISS:   187  HIT %: 99.7883  MISS %: 0.211675  AVERAGE MISS PENALTY: 100
STLB LOAD      ACCESS: 88343  HIT: 88156  MISS:   187  HIT %: 99.7883  MISS %: 0.211675  AVERAGE MISS PENALTY: 100
STLB RFO       ACCESS:     0  HIT:     0  MISS:     0  HIT %:     0  MISS %:     0  AVERAGE MISS PENALTY: 0
STLB PREFETCH  ACCESS:     0  HIT:     0  MISS:     0  HIT %:     0  MISS %:     0  AVERAGE MISS PENALTY: 0
STLB WRITEBACK ACCESS:     0  HIT:     0  MISS:     0  HIT %:     0  MISS %:     0  AVERAGE MISS PENALTY: 0

L1D TOTAL     ACCESS: 56473958  HIT: 51018306  MISS: 5455652  HIT %: 90.3395  MISS %: 9.66047  AVERAGE MISS PENALTY: 8.61799e+07
L1D LOAD      ACCESS: 33556132  HIT: 32051322  MISS: 1504810  HIT %: 95.5155  MISS %: 4.48446  AVERAGE MISS PENALTY: 3.12442e+08
L1D RFO       ACCESS: 3553498  HIT: 3553498  MISS:     0  HIT %:   100  MISS %:     0  AVERAGE MISS PENALTY: 0
L1D PREFETCH  ACCESS: 19364328  HIT: 15413486  MISS: 3950842  HIT %: 79.5973  MISS %: 20.4027  AVERAGE MISS PENALTY: 255.828
L1D WRITEBACK ACCESS:     0  HIT:     0  MISS:     0  HIT %:     0  MISS %:     0  AVERAGE MISS PENALTY: 0

L1I TOTAL     ACCESS: 33008899  HIT: 33008899  MISS:     0  HIT %:   100  MISS %:     0  AVERAGE MISS PENALTY: 0
L1I LOAD      ACCESS: 33008899  HIT: 33008899  MISS:     0  HIT %:   100  MISS %:     0  AVERAGE MISS PENALTY: 0
L1I RFO       ACCESS:     0  HIT:     0  MISS:     0  HIT %:     0  MISS %:     0  AVERAGE MISS PENALTY: 0
L1I PREFETCH  ACCESS:     0  HIT:     0  MISS:     0  HIT %:     0  MISS %:     0  AVERAGE MISS PENALTY: 0
L1I WRITEBACK ACCESS:     0  HIT:     0  MISS:     0  HIT %:     0  MISS %:     0  AVERAGE MISS PENALTY: 0

L2C TOTAL     ACCESS: 7271007  HIT: 1831719  MISS: 5439288  HIT %: 25.1921  MISS %: 74.8079  AVERAGE MISS PENALTY: 3.16353e+07
L2C LOAD      ACCESS: 1349850  HIT: 532188  MISS: 817662  HIT %: 39.4257  MISS %: 60.5743  AVERAGE MISS PENALTY: 2.10444e+08
L2C RFO       ACCESS:     0  HIT:     0  MISS:     0  HIT %:     0  MISS %:     0  AVERAGE MISS PENALTY: 0
L2C PREFETCH  ACCESS: 5921013  HIT: 1299387  MISS: 4621626  HIT %: 21.9453  MISS %: 78.0547  AVERAGE MISS PENALTY: 193.115
L2C WRITEBACK ACCESS:   144  HIT:   144  MISS:     0  HIT %:   100  MISS %:     0  AVERAGE MISS PENALTY: 0


LLC0 TOTAL     ACCESS: 680282  HIT: 254556  MISS: 425726  HIT %: 37.4192  MISS %: 62.5808  AVERAGE MISS PENALTY: 550.926
LLC0 LOAD      ACCESS: 125728  HIT: 40573  MISS: 85155  HIT %: 32.2705  MISS %: 67.7295  AVERAGE MISS PENALTY: 223.729
LLC0 RFO       ACCESS:     0  HIT:     0  MISS:     0  HIT %:     0  MISS %:     0  AVERAGE MISS PENALTY: 0
LLC0 PREFETCH  ACCESS: 554554  HIT: 213983  MISS: 340571  HIT %: 38.5865  MISS %: 61.4135  AVERAGE MISS PENALTY: 632.737
LLC0 WRITEBACK ACCESS:     0  HIT:     0  MISS:     0  HIT %:     0  MISS %:     0  AVERAGE MISS PENALTY: 0

LLC1 TOTAL     ACCESS: 680181  HIT: 255421  MISS: 424760  HIT %: 37.5519  MISS %: 62.4481  AVERAGE MISS PENALTY: 214.275
LLC1 LOAD      ACCESS: 46255  HIT: 17839  MISS: 28416  HIT %: 38.5666  MISS %: 61.4334  AVERAGE MISS PENALTY: 212.184
LLC1 RFO       ACCESS:     0  HIT:     0  MISS:     0  HIT %:     0  MISS %:     0  AVERAGE MISS PENALTY: 0
LLC1 PREFETCH  ACCESS: 633926  HIT: 237582  MISS: 396344  HIT %: 37.4779  MISS %: 62.5221  AVERAGE MISS PENALTY: 214.425
LLC1 WRITEBACK ACCESS:     0  HIT:     0  MISS:     0  HIT %:     0  MISS %:     0  AVERAGE MISS PENALTY: 0

LLC2 TOTAL     ACCESS: 679580  HIT: 253856  MISS: 425724  HIT %: 37.3548  MISS %: 62.6452  AVERAGE MISS PENALTY: 223.299
LLC2 LOAD      ACCESS: 48103  HIT: 14734  MISS: 33369  HIT %: 30.6301  MISS %: 69.3699  AVERAGE MISS PENALTY: 213.479
LLC2 RFO       ACCESS:     0  HIT:     0  MISS:     0  HIT %:     0  MISS %:     0  AVERAGE MISS PENALTY: 0
LLC2 PREFETCH  ACCESS: 631477  HIT: 239122  MISS: 392355  HIT %: 37.8671  MISS %: 62.1329  AVERAGE MISS PENALTY: 224.134
LLC2 WRITEBACK ACCESS:     0  HIT:     0  MISS:     0  HIT %:     0  MISS %:     0  AVERAGE MISS PENALTY: 0

LLC3 TOTAL     ACCESS: 679401  HIT: 254739  MISS: 424662  HIT %: 37.4946  MISS %: 62.5054  AVERAGE MISS PENALTY: 224.835
LLC3 LOAD      ACCESS: 33355  HIT: 13636  MISS: 19719  HIT %: 40.8814  MISS %: 59.1186  AVERAGE MISS PENALTY: 232.504
LLC3 RFO       ACCESS:     0  HIT:     0  MISS:     0  HIT %:     0  MISS %:     0  AVERAGE MISS PENALTY: 0
LLC3 PREFETCH  ACCESS: 646046  HIT: 241103  MISS: 404943  HIT %: 37.3198  MISS %: 62.6802  AVERAGE MISS PENALTY: 224.462
LLC3 WRITEBACK ACCESS:     0  HIT:     0  MISS:     0  HIT %:     0  MISS %:     0  AVERAGE MISS PENALTY: 0

LLC4 TOTAL     ACCESS: 679588  HIT: 254761  MISS: 424827  HIT %: 37.4876  MISS %: 62.5124  AVERAGE MISS PENALTY: 216.244
LLC4 LOAD      ACCESS: 61738  HIT: 17215  MISS: 44523  HIT %: 27.884  MISS %: 72.116  AVERAGE MISS PENALTY: 235.662
LLC4 RFO       ACCESS:     0  HIT:     0  MISS:     0  HIT %:     0  MISS %:     0  AVERAGE MISS PENALTY: 0
LLC4 PREFETCH  ACCESS: 617850  HIT: 237546  MISS: 380304  HIT %: 38.4472  MISS %: 61.5528  AVERAGE MISS PENALTY: 213.97
LLC4 WRITEBACK ACCESS:     0  HIT:     0  MISS:     0  HIT %:     0  MISS %:     0  AVERAGE MISS PENALTY: 0

LLC5 TOTAL     ACCESS: 679958  HIT: 254538  MISS: 425420  HIT %: 37.4344  MISS %: 62.5656  AVERAGE MISS PENALTY: 213.367
LLC5 LOAD      ACCESS: 10941  HIT:  5446  MISS:  5495  HIT %: 49.7761  MISS %: 50.2239  AVERAGE MISS PENALTY: 232.796
LLC5 RFO       ACCESS:     0  HIT:     0  MISS:     0  HIT %:     0  MISS %:     0  AVERAGE MISS PENALTY: 0
LLC5 PREFETCH  ACCESS: 669017  HIT: 249092  MISS: 419925  HIT %: 37.2325  MISS %: 62.7675  AVERAGE MISS PENALTY: 213.112
LLC5 WRITEBACK ACCESS:     0  HIT:     0  MISS:     0  HIT %:     0  MISS %:     0  AVERAGE MISS PENALTY: 0

LLC6 TOTAL     ACCESS: 679939  HIT: 255012  MISS: 424927  HIT %: 37.5051  MISS %: 62.4949  AVERAGE MISS PENALTY: 222.817
LLC6 LOAD      ACCESS: 41672  HIT: 12067  MISS: 29605  HIT %: 28.9571  MISS %: 71.0429  AVERAGE MISS PENALTY: 200.748
LLC6 RFO       ACCESS:     0  HIT:     0  MISS:     0  HIT %:     0  MISS %:     0  AVERAGE MISS PENALTY: 0
LLC6 PREFETCH  ACCESS: 638267  HIT: 242945  MISS: 395322  HIT %: 38.0632  MISS %: 61.9368  AVERAGE MISS PENALTY: 224.469
LLC6 WRITEBACK ACCESS:     0  HIT:     0  MISS:     0  HIT %:     0  MISS %:     0  AVERAGE MISS PENALTY: 0

LLC7 TOTAL     ACCESS: 680359  HIT: 254738  MISS: 425621  HIT %: 37.4417  MISS %: 62.5583  AVERAGE MISS PENALTY: 226.45
LLC7 LOAD      ACCESS:  5266  HIT:  2756  MISS:  2510  HIT %: 52.3357  MISS %: 47.6643  AVERAGE MISS PENALTY: 214.426
LLC7 RFO       ACCESS:     0  HIT:     0  MISS:     0  HIT %:     0  MISS %:     0  AVERAGE MISS PENALTY: 0
LLC7 PREFETCH  ACCESS: 675093  HIT: 251982  MISS: 423111  HIT %: 37.3255  MISS %: 62.6745  AVERAGE MISS PENALTY: 226.522
LLC7 WRITEBACK ACCESS:     0  HIT:     0  MISS:     0  HIT %:     0  MISS %:     0  AVERAGE MISS PENALTY: 0

Total Rob stall cycles : 	370159423
Total Load Rob Stall cycles : 	215535298
Average Rob Stall cycles : 	 5
Average Load Rob Stall cycles : 	 16

CPU 1 cumulative IPC: 0.450488 instructions: 200381597 cycles: 444810092
ITLB TOTAL     ACCESS: 25720979  HIT: 25720979  MISS:     0  HIT %:   100  MISS %:     0  AVERAGE MISS PENALTY: 0
ITLB LOAD      ACCESS: 25720979  HIT: 25720979  MISS:     0  HIT %:   100  MISS %:     0  AVERAGE MISS PENALTY: 0
ITLB RFO       ACCESS:     0  HIT:     0  MISS:     0  HIT %:     0  MISS %:     0  AVERAGE MISS PENALTY: 0
ITLB PREFETCH  ACCESS:     0  HIT:     0  MISS:     0  HIT %:     0  MISS %:     0  AVERAGE MISS PENALTY: 0
ITLB WRITEBACK ACCESS:     0  HIT:     0  MISS:     0  HIT %:     0  MISS %:     0  AVERAGE MISS PENALTY: 0

DTLB TOTAL     ACCESS: 51149531  HIT: 51061344  MISS: 88187  HIT %: 99.8276  MISS %: 0.17241  AVERAGE MISS PENALTY: 9.26295
DTLB LOAD      ACCESS: 47602604  HIT: 47514417  MISS: 88187  HIT %: 99.8147  MISS %: 0.185257  AVERAGE MISS PENALTY: 9.26295
DTLB RFO       ACCESS: 3546927  HIT: 3546927  MISS:     0  HIT %:   100  MISS %:     0  AVERAGE MISS PENALTY: 0
DTLB PREFETCH  ACCESS:     0  HIT:     0  MISS:     0  HIT %:     0  MISS %:     0  AVERAGE MISS PENALTY: 0
DTLB WRITEBACK ACCESS:     0  HIT:     0  MISS:     0  HIT %:     0  MISS %:     0  AVERAGE MISS PENALTY: 0

STLB TOTAL     ACCESS: 88187  HIT: 88000  MISS:   187  HIT %: 99.788  MISS %: 0.212049  AVERAGE MISS PENALTY: 100
STLB LOAD      ACCESS: 88187  HIT: 88000  MISS:   187  HIT %: 99.788  MISS %: 0.212049  AVERAGE MISS PENALTY: 100
STLB RFO       ACCESS:     0  HIT:     0  MISS:     0  HIT %:     0  MISS %:     0  AVERAGE MISS PENALTY: 0
STLB PREFETCH  ACCESS:     0  HIT:     0  MISS:     0  HIT %:     0  MISS %:     0  AVERAGE MISS PENALTY: 0
STLB WRITEBACK ACCESS:     0  HIT:     0  MISS:     0  HIT %:     0  MISS %:     0  AVERAGE MISS PENALTY: 0

L1D TOTAL     ACCESS: 56370023  HIT: 50924233  MISS: 5445790  HIT %: 90.3392  MISS %: 9.66079  AVERAGE MISS PENALTY: 8.59203e+07
L1D LOAD      ACCESS: 33499260  HIT: 32000202  MISS: 1499058  HIT %: 95.5251  MISS %: 4.4749  AVERAGE MISS PENALTY: 3.12132e+08
L1D RFO       ACCESS: 3547070  HIT: 3547070  MISS:     0  HIT %:   100  MISS %:     0  AVERAGE MISS PENALTY: 0
L1D PREFETCH  ACCESS: 19323693  HIT: 15376961  MISS: 3946732  HIT %: 79.5757  MISS %: 20.4243  AVERAGE MISS PENALTY: 148.745
L1D WRITEBACK ACCESS:     0  HIT:     0  MISS:     0  HIT %:     0  MISS %:     0  AVERAGE MISS PENALTY: 0

L1I TOTAL     ACCESS: 32949447  HIT: 32949447  MISS:     0  HIT %:   100  MISS %:     0  AVERAGE MISS PENALTY: 0
L1I LOAD      ACCESS: 32949447  HIT: 32949447  MISS:     0  HIT %:   100  MISS %:     0  AVERAGE MISS PENALTY: 0
L1I RFO       ACCESS:     0  HIT:     0  MISS:     0  HIT %:     0  MISS %:     0  AVERAGE MISS PENALTY: 0
L1I PREFETCH  ACCESS:     0  HIT:     0  MISS:     0  HIT %:     0  MISS %:     0  AVERAGE MISS PENALTY: 0
L1I WRITEBACK ACCESS:     0  HIT:     0  MISS:     0  HIT %:     0  MISS %:     0  AVERAGE MISS PENALTY: 0

L2C TOTAL     ACCESS: 7257908  HIT: 1823626  MISS: 5434282  HIT %: 25.1261  MISS %: 74.8739  AVERAGE MISS PENALTY: 3.13645e+07
L2C LOAD      ACCESS: 1344720  HIT: 531826  MISS: 812894  HIT %: 39.5492  MISS %: 60.4508  AVERAGE MISS PENALTY: 2.09674e+08
L2C RFO       ACCESS:     0  HIT:     0  MISS:     0  HIT %:     0  MISS %:     0  AVERAGE MISS PENALTY: 0
L2C PREFETCH  ACCESS: 5913044  HIT: 1291656  MISS: 4621388  HIT %: 21.8442  MISS %: 78.1558  AVERAGE MISS PENALTY: 163.486
L2C WRITEBACK ACCESS:   144  HIT:   144  MISS:     0  HIT %:   100  MISS %:     0  AVERAGE MISS PENALTY: 0


LLC0 TOTAL     ACCESS: 679696  HIT: 256210  MISS: 423486  HIT %: 37.6948  MISS %: 62.3052  AVERAGE MISS PENALTY: 219.454
LLC0 LOAD      ACCESS: 125050  HIT: 40593  MISS: 84457  HIT %: 32.4614  MISS %: 67.5386  AVERAGE MISS PENALTY: 225.625
LLC0 RFO       ACCESS:     0  HIT:     0  MISS:     0  HIT %:     0  MISS %:     0  AVERAGE MISS PENALTY: 0
LLC0 PREFETCH  ACCESS: 554646  HIT: 215617  MISS: 339029  HIT %: 38.8747  MISS %: 61.1253  AVERAGE MISS PENALTY: 217.917
LLC0 WRITEBACK ACCESS:     0  HIT:     0  MISS:     0  HIT %:     0  MISS %:     0  AVERAGE MISS PENALTY: 0

LLC1 TOTAL     ACCESS: 679456  HIT: 256288  MISS: 423168  HIT %: 37.7196  MISS %: 62.2804  AVERAGE MISS PENALTY: 217.244
LLC1 LOAD      ACCESS: 46245  HIT: 17846  MISS: 28399  HIT %: 38.5901  MISS %: 61.4099  AVERAGE MISS PENALTY: 215.448
LLC1 RFO       ACCESS:     0  HIT:     0  MISS:     0  HIT %:     0  MISS %:     0  AVERAGE MISS PENALTY: 0
LLC1 PREFETCH  ACCESS: 633211  HIT: 238442  MISS: 394769  HIT %: 37.656  MISS %: 62.344  AVERAGE MISS PENALTY: 217.373
LLC1 WRITEBACK ACCESS:     0  HIT:     0  MISS:     0  HIT %:     0  MISS %:     0  AVERAGE MISS PENALTY: 0

LLC2 TOTAL     ACCESS: 679014  HIT: 255535  MISS: 423479  HIT %: 37.6332  MISS %: 62.3668  AVERAGE MISS PENALTY: 225.859
LLC2 LOAD      ACCESS: 48341  HIT: 14760  MISS: 33581  HIT %: 30.5331  MISS %: 69.4669  AVERAGE MISS PENALTY: 216.574
LLC2 RFO       ACCESS:     0  HIT:     0  MISS:     0  HIT %:     0  MISS %:     0  AVERAGE MISS PENALTY: 0
LLC2 PREFETCH  ACCESS: 630673  HIT: 240775  MISS: 389898  HIT %: 38.1775  MISS %: 61.8225  AVERAGE MISS PENALTY: 226.659
LLC2 WRITEBACK ACCESS:     0  HIT:     0  MISS:     0  HIT %:     0  MISS %:     0  AVERAGE MISS PENALTY: 0

LLC3 TOTAL     ACCESS: 678671  HIT: 255741  MISS: 422930  HIT %: 37.6826  MISS %: 62.3174  AVERAGE MISS PENALTY: 226.765
LLC3 LOAD      ACCESS: 33157  HIT: 13792  MISS: 19365  HIT %: 41.596  MISS %: 58.404  AVERAGE MISS PENALTY: 236.221
LLC3 RFO       ACCESS:     0  HIT:     0  MISS:     0  HIT %:     0  MISS %:     0  AVERAGE MISS PENALTY: 0
LLC3 PREFETCH  ACCESS: 645514  HIT: 241949  MISS: 403565  HIT %: 37.4816  MISS %: 62.5184  AVERAGE MISS PENALTY: 226.311
LLC3 WRITEBACK ACCESS:     0  HIT:     0  MISS:     0  HIT %:     0  MISS %:     0  AVERAGE MISS PENALTY: 0

LLC4 TOTAL     ACCESS: 678880  HIT: 255223  MISS: 423657  HIT %: 37.5947  MISS %: 62.4053  AVERAGE MISS PENALTY: 219.081
LLC4 LOAD      ACCESS: 61314  HIT: 16899  MISS: 44415  HIT %: 27.5614  MISS %: 72.4386  AVERAGE MISS PENALTY: 238.203
LLC4 RFO       ACCESS:     0  HIT:     0  MISS:     0  HIT %:     0  MISS %:     0  AVERAGE MISS PENALTY: 0
[...]
LLC1 PREFETCH  REQUESTED:     0  ISSUED:     0  USEFUL:  6628  USELESS: 3147183
 USEFUL LOAD PREFETCHES:       6628 PREFETCH ISSUED TO LOWER LEVEL:    3153372  ACCURACY: 0.210188
 TIMELY PREFETCHES:       6628 LATE PREFETCHES: 0 DROPPED PREFETCHES: 0
LLC1 AVERAGE MISS LATENCY: 218.662 cycles
LLC2 TOTAL     ACCESS: 677021  HIT: 256427  MISS: 420594  HIT %: 37.8758  MISS %: 62.1242  AVERAGE MISS PENALTY: 227.436
LLC2 LOAD      ACCESS: 47940  HIT: 14628  MISS: 33312  HIT %: 30.5131  MISS %: 69.4869  AVERAGE MISS PENALTY: 218.368
LLC2 RFO       ACCESS:     0  HIT:     0  MISS:     0  HIT %:     0  MISS %:     0  AVERAGE MISS PENALTY: 0
LLC2 PREFETCH  ACCESS: 629081  HIT: 241799  MISS: 387282  HIT %: 38.4369  MISS %: 61.5631  AVERAGE MISS PENALTY: 228.216
LLC2 WRITEBACK ACCESS:     0  HIT:     0  MISS:     0  HIT %:     0  MISS %:     0  AVERAGE MISS PENALTY: 0
LLC2 PREFETCH  REQUESTED:     0  ISSUED:     0  USEFUL: 41013  USELESS: 3072462
 USEFUL LOAD PREFETCHES:      41013 PREFETCH ISSUED TO LOWER LEVEL:    3111313  ACCURACY: 1.31819
 TIMELY PREFETCHES:      41013 LATE PREFETCHES: 0 DROPPED PREFETCHES: 0
LLC2 AVERAGE MISS LATENCY: 227.436 cycles
LLC3 TOTAL     ACCESS: 676854  HIT: 255960  MISS: 420894  HIT %: 37.8161  MISS %: 62.1839  AVERAGE MISS PENALTY: 228.475
LLC3 LOAD      ACCESS: 33049  HIT: 13801  MISS: 19248  HIT %: 41.7592  MISS %: 58.2408  AVERAGE MISS PENALTY: 238.089
LLC3 RFO       ACCESS:     0  HIT:     0  MISS:     0  HIT %:     0  MISS %:     0  AVERAGE MISS PENALTY: 0
LLC3 PREFETCH  ACCESS: 643805  HIT: 242159  MISS: 401646  HIT %: 37.6137  MISS %: 62.3863  AVERAGE MISS PENALTY: 228.014
LLC3 WRITEBACK ACCESS:     0  HIT:     0  MISS:     0  HIT %:     0  MISS %:     0  AVERAGE MISS PENALTY: 0
LLC3 PREFETCH  REQUESTED:     0  ISSUED:     0  USEFUL: 12137  USELESS: 3209679
 USEFUL LOAD PREFETCHES:      12137 PREFETCH ISSUED TO LOWER LEVEL:    3221278  ACCURACY: 0.376776
 TIMELY PREFETCHES:      12137 LATE PREFETCHES: 0 DROPPED PREFETCHES: 0
LLC3 AVERAGE MISS LATENCY: 228.475 cycles
LLC4 TOTAL     ACCESS: 677114  HIT: 256174  MISS: 420940  HIT %: 37.8332  MISS %: 62.1668  AVERAGE MISS PENALTY: 220.696
LLC4 LOAD      ACCESS: 61173  HIT: 17040  MISS: 44133  HIT %: 27.8554  MISS %: 72.1446  AVERAGE MISS PENALTY: 239.886
LLC4 RFO       ACCESS:     0  HIT:     0  MISS:     0  HIT %:     0  MISS %:     0  AVERAGE MISS PENALTY: 0
LLC4 PREFETCH  ACCESS: 615941  HIT: 239134  MISS: 376807  HIT %: 38.8242  MISS %: 61.1758  AVERAGE MISS PENALTY: 218.449
LLC4 WRITEBACK ACCESS:     0  HIT:     0  MISS:     0  HIT %:     0  MISS %:     0  AVERAGE MISS PENALTY: 0
LLC4 PREFETCH  REQUESTED:     0  ISSUED:     0  USEFUL: 41297  USELESS: 2986385
 USEFUL LOAD PREFETCHES:      41297 PREFETCH ISSUED TO LOWER LEVEL:    3023681  ACCURACY: 1.36579
 TIMELY PREFETCHES:      41297 LATE PREFETCHES: 0 DROPPED PREFETCHES: 0
LLC4 AVERAGE MISS LATENCY: 220.696 cycles
LLC5 TOTAL     ACCESS: 677473  HIT: 257099  MISS: 420374  HIT %: 37.9497  MISS %: 62.0503  AVERAGE MISS PENALTY: 217.901
LLC5 LOAD      ACCESS: 10667  HIT:  5352  MISS:  5315  HIT %: 50.1734  MISS %: 49.8266  AVERAGE MISS PENALTY: 236.669
LLC5 RFO       ACCESS:     0  HIT:     0  MISS:     0  HIT %:     0  MISS %:     0  AVERAGE MISS PENALTY: 0
LLC5 PREFETCH  ACCESS: 666806  HIT: 251747  MISS: 415059  HIT %: 37.7542  MISS %: 62.2458  AVERAGE MISS PENALTY: 217.661
LLC5 WRITEBACK ACCESS:     0  HIT:     0  MISS:     0  HIT %:     0  MISS %:     0  AVERAGE MISS PENALTY: 0
LLC5 PREFETCH  REQUESTED:     0  ISSUED:     0  USEFUL:  8528  USELESS: 3325744
 USEFUL LOAD PREFETCHES:       8528 PREFETCH ISSUED TO LOWER LEVEL:    3333908  ACCURACY: 0.255796
 TIMELY PREFETCHES:       8528 LATE PREFETCHES: 0 DROPPED PREFETCHES: 0
LLC5 AVERAGE MISS LATENCY: 217.901 cycles
LLC6 TOTAL     ACCESS: 677581  HIT: 257094  MISS: 420487  HIT %: 37.9429  MISS %: 62.0571  AVERAGE MISS PENALTY: 226.761
LLC6 LOAD      ACCESS: 41728  HIT: 12046  MISS: 29682  HIT %: 28.8679  MISS %: 71.1321  AVERAGE MISS PENALTY: 205.419
LLC6 RFO       ACCESS:     0  HIT:     0  MISS:     0  HIT %:     0  MISS %:     0  AVERAGE MISS PENALTY: 0
LLC6 PREFETCH  ACCESS: 635853  HIT: 245048  MISS: 390805  HIT %: 38.5385  MISS %: 61.4615  AVERAGE MISS PENALTY: 228.382
LLC6 WRITEBACK ACCESS:     0  HIT:     0  MISS:     0  HIT %:     0  MISS %:     0  AVERAGE MISS PENALTY: 0
LLC6 PREFETCH  REQUESTED:     0  ISSUED:     0  USEFUL: 44585  USELESS: 3100092
 USEFUL LOAD PREFETCHES:      44585 PREFETCH ISSUED TO LOWER LEVEL:    3141597  ACCURACY: 1.41918
 TIMELY PREFETCHES:      44585 LATE PREFETCHES: 0 DROPPED PREFETCHES: 0
LLC6 AVERAGE MISS LATENCY: 226.761 cycles
LLC7 TOTAL     ACCESS: 677883  HIT: 256208  MISS: 421675  HIT %: 37.7953  MISS %: 62.2047  AVERAGE MISS PENALTY: 230.391
LLC7 LOAD      ACCESS:  5121  HIT:  2718  MISS:  2403  HIT %: 53.0756  MISS %: 46.9244  AVERAGE MISS PENALTY: 214.457
LLC7 RFO       ACCESS:     0  HIT:     0  MISS:     0  HIT %:     0  MISS %:     0  AVERAGE MISS PENALTY: 0
LLC7 PREFETCH  ACCESS: 672762  HIT: 253490  MISS: 419272  HIT %: 37.679  MISS %: 62.321  AVERAGE MISS PENALTY: 230.482
LLC7 WRITEBACK ACCESS:     0  HIT:     0  MISS:     0  HIT %:     0  MISS %:     0  AVERAGE MISS PENALTY: 0
LLC7 PREFETCH  REQUESTED:     0  ISSUED:     0  USEFUL:  7689  USELESS: 3354294
 USEFUL LOAD PREFETCHES:       7689 PREFETCH ISSUED TO LOWER LEVEL:    3361776  ACCURACY: 0.228718
 TIMELY PREFETCHES:       7689 LATE PREFETCHES: 0 DROPPED PREFETCHES: 0
LLC7 AVERAGE MISS LATENCY: 230.391 cycles
ROI Average ROB Stall Cycles:	5.54648
ROI Total ROB Stalls Cycles:	369954281
ROI TOTAL ROB counter      :	66700674
ROI Average Load ROB Stall Cycles:	16.4016
ROI Total Load ROB Stalls Cycle  :	215876027
ROI Total Load ROB stalls Counter:	13161927
Major fault: 0 Minor fault: 1598

CPU 7 cumulative IPC: 0.451398 instructions: 200000000 cycles: 443067813
ITLB TOTAL     ACCESS: 25672197  HIT: 25672197  MISS:     0  HIT %:   100  MISS %:     0  AVERAGE MISS PENALTY: 0
ITLB LOAD      ACCESS: 25672197  HIT: 25672197  MISS:     0  HIT %:   100  MISS %:     0  AVERAGE MISS PENALTY: 0
ITLB RFO       ACCESS:     0  HIT:     0  MISS:     0  HIT %:     0  MISS %:     0  AVERAGE MISS PENALTY: 0
ITLB PREFETCH  ACCESS:     0  HIT:     0  MISS:     0  HIT %:     0  MISS %:     0  AVERAGE MISS PENALTY: 0
ITLB WRITEBACK ACCESS:     0  HIT:     0  MISS:     0  HIT %:     0  MISS %:     0  AVERAGE MISS PENALTY: 0
ITLB PREFETCH  REQUESTED:     0  ISSUED:     0  USEFUL:     0  USELESS:     0
 USEFUL LOAD PREFETCHES:          0 PREFETCH ISSUED TO LOWER LEVEL:          0  ACCURACY: -nan
 TIMELY PREFETCHES:          0 LATE PREFETCHES: 0 DROPPED PREFETCHES: 0
ITLB AVERAGE MISS LATENCY: -nan cycles
DTLB TOTAL     ACCESS: 51054280  HIT: 50966268  MISS: 88012  HIT %: 99.8276  MISS %: 0.172389  AVERAGE MISS PENALTY: 9.25788
DTLB LOAD      ACCESS: 47514195  HIT: 47426183  MISS: 88012  HIT %: 99.8148  MISS %: 0.185233  AVERAGE MISS PENALTY: 9.25788
DTLB RFO       ACCESS: 3540085  HIT: 3540085  MISS:     0  HIT %:   100  MISS %:     0  AVERAGE MISS PENALTY: 0
DTLB PREFETCH  ACCESS:     0  HIT:     0  MISS:     0  HIT %:     0  MISS %:     0  AVERAGE MISS PENALTY: 0
DTLB WRITEBACK ACCESS:     0  HIT:     0  MISS:     0  HIT %:     0  MISS %:     0  AVERAGE MISS PENALTY: 0
DTLB PREFETCH  REQUESTED:     0  ISSUED:     0  USEFUL:     0  USELESS:     0
 USEFUL LOAD PREFETCHES:          0 PREFETCH ISSUED TO LOWER LEVEL:          0  ACCURACY: -nan
 TIMELY PREFETCHES:          0 LATE PREFETCHES: 0 DROPPED PREFETCHES: 0
DTLB AVERAGE MISS LATENCY: 9.25789 cycles
STLB TOTAL     ACCESS: 88012  HIT: 87827  MISS:   185  HIT %: 99.7898  MISS %: 0.210199  AVERAGE MISS PENALTY: 100
STLB LOAD      ACCESS: 88012  HIT: 87827  MISS:   185  HIT %: 99.7898  MISS %: 0.210199  AVERAGE MISS PENALTY: 100
STLB RFO       ACCESS:     0  HIT:     0  MISS:     0  HIT %:     0  MISS %:     0  AVERAGE MISS PENALTY: 0
STLB PREFETCH  ACCESS:     0  HIT:     0  MISS:     0  HIT %:     0  MISS %:     0  AVERAGE MISS PENALTY: 0
STLB WRITEBACK ACCESS:     0  HIT:     0  MISS:     0  HIT %:     0  MISS %:     0  AVERAGE MISS PENALTY: 0
STLB PREFETCH  REQUESTED:     0  ISSUED:     0  USEFUL:     0  USELESS:     0
 USEFUL LOAD PREFETCHES:          0 PREFETCH ISSUED TO LOWER LEVEL:          0  ACCURACY: -nan
 TIMELY PREFETCHES:          0 LATE PREFETCHES: 0 DROPPED PREFETCHES: 0
STLB AVERAGE MISS LATENCY: 100 cycles
L1D TOTAL     ACCESS: 56272073  HIT: 50836846  MISS: 5435227  HIT %: 90.3412  MISS %: 9.65884  AVERAGE MISS PENALTY: 8.59598e+07
L1D LOAD      ACCESS: 33434265  HIT: 31934878  MISS: 1499387  HIT %: 95.5154  MISS %: 4.48458  AVERAGE MISS PENALTY: 3.11601e+08
L1D RFO       ACCESS: 3540229  HIT: 3540229  MISS:     0  HIT %:   100  MISS %:     0  AVERAGE MISS PENALTY: 0
L1D PREFETCH  ACCESS: 19297579  HIT: 15361739  MISS: 3935840  HIT %: 79.6045  MISS %: 20.3955  AVERAGE MISS PENALTY: 183.783
L1D WRITEBACK ACCESS:     0  HIT:     0  MISS:     0  HIT %:     0  MISS %:     0  AVERAGE MISS PENALTY: 0
L1D PREFETCH  REQUESTED: 38269364  ISSUED: 38171037  USEFUL: 3525587  USELESS: 410266
 USEFUL LOAD PREFETCHES:    3525587 PREFETCH ISSUED TO LOWER LEVEL:   14966274  ACCURACY: 23.5569
 TIMELY PREFETCHES:    3525587 LATE PREFETCHES: 2197850 DROPPED PREFETCHES: 98327
L1D AVERAGE MISS LATENCY: 136.248 cycles
L1I TOTAL     ACCESS: 32886780  HIT: 32886780  MISS:     0  HIT %:   100  MISS %:     0  AVERAGE MISS PENALTY: 0
L1I LOAD      ACCESS: 32886780  HIT: 32886780  MISS:     0  HIT %:   100  MISS %:     0  AVERAGE MISS PENALTY: 0
L1I RFO       ACCESS:     0  HIT:     0  MISS:     0  HIT %:     0  MISS %:     0  AVERAGE MISS PENALTY: 0
L1I PREFETCH  ACCESS:     0  HIT:     0  MISS:     0  HIT %:     0  MISS %:     0  AVERAGE MISS PENALTY: 0
L1I WRITEBACK ACCESS:     0  HIT:     0  MISS:     0  HIT %:     0  MISS %:     0  AVERAGE MISS PENALTY: 0
L1I PREFETCH  REQUESTED:     0  ISSUED:     0  USEFUL:     0  USELESS:     0
 USEFUL LOAD PREFETCHES:          0 PREFETCH ISSUED TO LOWER LEVEL:          0  ACCURACY: -nan
 TIMELY PREFETCHES:          0 LATE PREFETCHES: 0 DROPPED PREFETCHES: 0
L1I AVERAGE MISS LATENCY: -nan cycles
L2C TOTAL     ACCESS: 7245759  HIT: 1822272  MISS: 5423487  HIT %: 25.1495  MISS %: 74.8505  AVERAGE MISS PENALTY: 3.14868e+07
L2C LOAD      ACCESS: 1345278  HIT: 531032  MISS: 814246  HIT %: 39.4738  MISS %: 60.5262  AVERAGE MISS PENALTY: 2.09724e+08
L2C RFO       ACCESS:     0  HIT:     0  MISS:     0  HIT %:     0  MISS %:     0  AVERAGE MISS PENALTY: 0
L2C PREFETCH  ACCESS: 5900338  HIT: 1291097  MISS: 4609241  HIT %: 21.8817  MISS %: 78.1183  AVERAGE MISS PENALTY: 193.106
L2C WRITEBACK ACCESS:   143  HIT:   143  MISS:     0  HIT %:   100  MISS %:     0  AVERAGE MISS PENALTY: 0
L2C PREFETCH  REQUESTED: 8999721  ISSUED: 8999709  USEFUL: 527224  USELESS: 4081151
 USEFUL LOAD PREFETCHES:     527224 PREFETCH ISSUED TO LOWER LEVEL:    6820842  ACCURACY: 7.7296
 TIMELY PREFETCHES:     527224 LATE PREFETCHES: 587263 DROPPED PREFETCHES: 12
L2C AVERAGE MISS LATENCY: 162.864 cycles
LLC0 TOTAL     ACCESS: 678344  HIT: 254394  MISS: 423950  HIT %: 37.5022  MISS %: 62.4978  AVERAGE MISS PENALTY: 216.726
LLC0 LOAD      ACCESS: 124979  HIT: 40671  MISS: 84308  HIT %: 32.5423  MISS %: 67.4577  AVERAGE MISS PENALTY: 223.609
LLC0 RFO       ACCESS:     0  HIT:     0  MISS:     0  HIT %:     0  MISS %:     0  AVERAGE MISS PENALTY: 0
LLC0 PREFETCH  ACCESS: 553365  HIT: 213723  MISS: 339642  HIT %: 38.6224  MISS %: 61.3776  AVERAGE MISS PENALTY: 215.017
LLC0 WRITEBACK ACCESS:     0  HIT:     0  MISS:     0  HIT %:     0  MISS %:     0  AVERAGE MISS PENALTY: 0
LLC0 PREFETCH  REQUESTED:     0  ISSUED:     0  USEFUL: 37053  USELESS: 2672673
 USEFUL LOAD PREFETCHES:      37053 PREFETCH ISSUED TO LOWER LEVEL:    2705371  ACCURACY: 1.36961
 TIMELY PREFETCHES:      37053 LATE PREFETCHES: 0 DROPPED PREFETCHES: 0
LLC0 AVERAGE MISS LATENCY: 216.726 cycles
Deadblocks : 635380 Deadblock percentage : 753.641

LLC1 TOTAL     ACCESS: 678269  HIT: 254488  MISS: 423781  HIT %: 37.5202  MISS %: 62.4798  AVERAGE MISS PENALTY: 214.474
LLC1 LOAD      ACCESS: 45932  HIT: 17701  MISS: 28231  HIT %: 38.5374  MISS %: 61.4626  AVERAGE MISS PENALTY: 211.997
LLC1 RFO       ACCESS:     0  HIT:     0  MISS:     0  HIT %:     0  MISS %:     0  AVERAGE MISS PENALTY: 0
LLC1 PREFETCH  ACCESS: 632321  HIT: 236786  MISS: 395535  HIT %: 37.4471  MISS %: 62.5529  AVERAGE MISS PENALTY: 214.659
LLC1 WRITEBACK ACCESS:    16  HIT:     1  MISS:    15  HIT %:  6.25  MISS %: 93.75  AVERAGE MISS PENALTY: 0
LLC1 PREFETCH  REQUESTED:     0  ISSUED:     0  USEFUL:  6628  USELESS: 3147183
 USEFUL LOAD PREFETCHES:       6628 PREFETCH ISSUED TO LOWER LEVEL:    3153372  ACCURACY: 0.210188
 TIMELY PREFETCHES:       6628 LATE PREFETCHES: 0 DROPPED PREFETCHES: 0
LLC1 AVERAGE MISS LATENCY: 214.474 cycles
LLC2 TOTAL     ACCESS: 677567  HIT: 253983  MISS: 423584  HIT %: 37.4846  MISS %: 62.5154  AVERAGE MISS PENALTY: 223.378
LLC2 LOAD      ACCESS: 48155  HIT: 14730  MISS: 33425  HIT %: 30.5887  MISS %: 69.4113  AVERAGE MISS PENALTY: 214.051
LLC2 RFO       ACCESS:     0  HIT:     0  MISS:     0  HIT %:     0  MISS %:     0  AVERAGE MISS PENALTY: 0
LLC2 PREFETCH  ACCESS: 629412  HIT: 239253  MISS: 390159  HIT %: 38.0121  MISS %: 61.9879  AVERAGE MISS PENALTY: 224.177
LLC2 WRITEBACK ACCESS:     0  HIT:     0  MISS:     0  HIT %:     0  MISS %:     0  AVERAGE MISS PENALTY: 0
LLC2 PREFETCH  REQUESTED:     0  ISSUED:     0  USEFUL: 41013  USELESS: 3072462
 USEFUL LOAD PREFETCHES:      41013 PREFETCH ISSUED TO LOWER LEVEL:    3111313  ACCURACY: 1.31819
 TIMELY PREFETCHES:      41013 LATE PREFETCHES: 0 DROPPED PREFETCHES: 0
LLC2 AVERAGE MISS LATENCY: 223.378 cycles
LLC3 TOTAL     ACCESS: 677390  HIT: 254138  MISS: 423252  HIT %: 37.5172  MISS %: 62.4828  AVERAGE MISS PENALTY: 224.73
LLC3 LOAD      ACCESS: 33138  HIT: 13788  MISS: 19350  HIT %: 41.6078  MISS %: 58.3922  AVERAGE MISS PENALTY: 233.199
LLC3 RFO       ACCESS:     0  HIT:     0  MISS:     0  HIT %:     0  MISS %:     0  AVERAGE MISS PENALTY: 0
LLC3 PREFETCH  ACCESS: 644252  HIT: 240350  MISS: 403902  HIT %: 37.3068  MISS %: 62.6932  AVERAGE MISS PENALTY: 224.325
LLC3 WRITEBACK ACCESS:     0  HIT:     0  MISS:     0  HIT %:     0  MISS %:     0  AVERAGE MISS PENALTY: 0
LLC3 PREFETCH  REQUESTED:     0  ISSUED:     0  USEFUL: 12137  USELESS: 3209679
 USEFUL LOAD PREFETCHES:      12137 PREFETCH ISSUED TO LOWER LEVEL:    3221278  ACCURACY: 0.376776
 TIMELY PREFETCHES:      12137 LATE PREFETCHES: 0 DROPPED PREFETCHES: 0
LLC3 AVERAGE MISS LATENCY: 224.73 cycles
LLC4 TOTAL     ACCESS: 677655  HIT: 254789  MISS: 422866  HIT %: 37.5986  MISS %: 62.4014  AVERAGE MISS PENALTY: 216.388
LLC4 LOAD      ACCESS: 61415  HIT: 17313  MISS: 44102  HIT %: 28.1902  MISS %: 71.8098  AVERAGE MISS PENALTY: 235.927
LLC4 RFO       ACCESS:     0  HIT:     0  MISS:     0  HIT %:     0  MISS %:     0  AVERAGE MISS PENALTY: 0
LLC4 PREFETCH  ACCESS: 616240  HIT: 237476  MISS: 378764  HIT %: 38.5363  MISS %: 61.4637  AVERAGE MISS PENALTY: 214.113
LLC4 WRITEBACK ACCESS:     0  HIT:     0  MISS:     0  HIT %:     0  MISS %:     0  AVERAGE MISS PENALTY: 0
LLC4 PREFETCH  REQUESTED:     0  ISSUED:     0  USEFUL: 41297  USELESS: 2986385
 USEFUL LOAD PREFETCHES:      41297 PREFETCH ISSUED TO LOWER LEVEL:    3023681  ACCURACY: 1.36579
 TIMELY PREFETCHES:      41297 LATE PREFETCHES: 0 DROPPED PREFETCHES: 0
LLC4 AVERAGE MISS LATENCY: 216.388 cycles
LLC5 TOTAL     ACCESS: 678012  HIT: 254842  MISS: 423170  HIT %: 37.5867  MISS %: 62.4133  AVERAGE MISS PENALTY: 213.59
LLC5 LOAD      ACCESS: 10685  HIT:  5205  MISS:  5480  HIT %: 48.7131  MISS %: 51.2869  AVERAGE MISS PENALTY: 232.206
LLC5 RFO       ACCESS:     0  HIT:     0  MISS:     0  HIT %:     0  MISS %:     0  AVERAGE MISS PENALTY: 0
LLC5 PREFETCH  ACCESS: 667327  HIT: 249637  MISS: 417690  HIT %: 37.4085  MISS %: 62.5915  AVERAGE MISS PENALTY: 213.345
LLC5 WRITEBACK ACCESS:     0  HIT:     0  MISS:     0  HIT %:     0  MISS %:     0  AVERAGE MISS PENALTY: 0
LLC5 PREFETCH  REQUESTED:     0  ISSUED:     0  USEFUL:  8528  USELESS: 3325744
 USEFUL LOAD PREFETCHES:       8528 PREFETCH ISSUED TO LOWER LEVEL:    3333908  ACCURACY: 0.255796
 TIMELY PREFETCHES:       8528 LATE PREFETCHES: 0 DROPPED PREFETCHES: 0
LLC5 AVERAGE MISS LATENCY: 213.59 cycles
LLC6 TOTAL     ACCESS: 677973  HIT: 255125  MISS: 422848  HIT %: 37.6306  MISS %: 62.3694  AVERAGE MISS PENALTY: 223.012
LLC6 LOAD      ACCESS: 41682  HIT: 12197  MISS: 29485  HIT %: 29.262  MISS %: 70.738  AVERAGE MISS PENALTY: 202.57
LLC6 RFO       ACCESS:     0  HIT:     0  MISS:     0  HIT %:     0  MISS %:     0  AVERAGE MISS PENALTY: 0
LLC6 PREFETCH  ACCESS: 636291  HIT: 242928  MISS: 393363  HIT %: 38.1788  MISS %: 61.8212  AVERAGE MISS PENALTY: 224.544
LLC6 WRITEBACK ACCESS:     0  HIT:     0  MISS:     0  HIT %:     0  MISS %:     0  AVERAGE MISS PENALTY: 0
LLC6 PREFETCH  REQUESTED:     0  ISSUED:     0  USEFUL: 44585  USELESS: 3100092
 USEFUL LOAD PREFETCHES:      44585 PREFETCH ISSUED TO LOWER LEVEL:    3141597  ACCURACY: 1.41918
 TIMELY PREFETCHES:      44585 LATE PREFETCHES: 0 DROPPED PREFETCHES: 0
LLC6 AVERAGE MISS LATENCY: 223.012 cycles
LLC7 TOTAL     ACCESS: 678293  HIT: 254442  MISS: 423851  HIT %: 37.5121  MISS %: 62.4879  AVERAGE MISS PENALTY: 226.445
LLC7 LOAD      ACCESS:  5065  HIT:  2716  MISS:  2349  HIT %: 53.6229  MISS %: 46.3771  AVERAGE MISS PENALTY: 211.461
LLC7 RFO       ACCESS:     0  HIT:     0  MISS:     0  HIT %:     0  MISS %:     0  AVERAGE MISS PENALTY: 0
LLC7 PREFETCH  ACCESS: 673228  HIT: 251726  MISS: 421502  HIT %: 37.3909  MISS %: 62.6091  AVERAGE MISS PENALTY: 226.528
LLC7 WRITEBACK ACCESS:     0  HIT:     0  MISS:     0  HIT %:     0  MISS %:     0  AVERAGE MISS PENALTY: 0
LLC7 PREFETCH  REQUESTED:     0  ISSUED:     0  USEFUL:  7689  USELESS: 3354294
 USEFUL LOAD PREFETCHES:       7689 PREFETCH ISSUED TO LOWER LEVEL:    3361776  ACCURACY: 0.228718
 TIMELY PREFETCHES:       7689 LATE PREFETCHES: 0 DROPPED PREFETCHES: 0
LLC7 AVERAGE MISS LATENCY: 226.445 cycles
ROI Average ROB Stall Cycles:	5.52738
ROI Total ROB Stalls Cycles:	368694255
ROI TOTAL ROB counter      :	66703297
ROI Average Load ROB Stall Cycles:	16.3028
ROI Total Load ROB Stalls Cycle  :	214629756
ROI Total Load ROB stalls Counter:	13165174
Major fault: 0 Minor fault: 1598








Interconnect Stats 
LINK 0 BW : 0LINK 1 BW : 0LINK 2 BW : 0LINK 3 BW : 0LINK 4 BW : 0LINK 5 BW : 0LINK 6 BW : 0LINK 7 BW : 0
DRAM Statistics
 CHANNEL 0
 RQ ROW_BUFFER_HIT: 4180570  ROW_BUFFER_MISS: 9333798
 DBUS_CONGESTED: 5382057
 WQ ROW_BUFFER_HIT:     0  ROW_BUFFER_MISS:     0  FULL:     0

 CHANNEL 1
 RQ ROW_BUFFER_HIT: 4086051  ROW_BUFFER_MISS: 9428596
 DBUS_CONGESTED: 5382057
 WQ ROW_BUFFER_HIT:     4  ROW_BUFFER_MISS:    20  FULL:     0

 AVG_CONGESTED_CYCLE: 4
DRAM PAGES: 2097152
Allocated PAGES: 12782
L2C destructor called
L1D destructor called
L1I destructor called
STLB destructor called
DTLB destructor called
ITLB destructor called
L2C destructor called
L1D destructor called
L1I destructor called
STLB destructor called
DTLB destructor called
ITLB destructor called
L2C destructor called
L1D destructor called
L1I destructor called
STLB destructor called
DTLB destructor called
ITLB destructor called
L2C destructor called
L1D destructor called
L1I destructor called
STLB destructor called
DTLB destructor called
ITLB destructor called
L2C destructor called
L1D destructor called
L1I destructor called
STLB destructor called
DTLB destructor called
ITLB destructor called
L2C destructor called
L1D destructor called
L1I destructor called
STLB destructor called
DTLB destructor called
ITLB destructor called
L2C destructor called
L1D destructor called
L1I destructor called
STLB destructor called
DTLB destructor called
ITLB destructor called
L2C destructor called
L1D destructor called
L1I destructor called
STLB destructor called
DTLB destructor called
ITLB destructor called
