
*** ChampSim Multicore Out-of-Order Simulator ***

Warmup Instructions: 200000000
Simulation Instructions: 200000000
Number of CPUs: 8
threads:1

L1I Configuration:
L1I_SET:64
L1I_WAY:8
L1I_RQ_SIZE:64
L1I_WQ_SIZE:64
L1I_PQ_SIZE:8
L1I_MSHR_SIZE:8

L1D Configuration:
L1D_SET:64
L1D_WAY:12
L1D_RQ_SIZE:64
L1D_WQ_SIZE:64
L1D_PQ_SIZE:8
L1D_MSHR_SIZE:16

L2C Configuration:
L2C_SET:1024
L2C_WAY:8
L2C_RQ_SIZE:32
L2C_WQ_SIZE:32
L2C_PQ_SIZE:16
L2C_MSHR_SIZE:32

LLC Configuration:
LLC_SET:2048
LLC_WAY:16
LLC SLICES:8
LLC_RQ_SIZE:64
LLC_WQ_SIZE:64
LLC_PQ_SIZE:32
LLC_MSHR_SIZE:64

Interconnect OFF
Attacker deprioritize is: OFF
Off-chip DRAM Size: 8192 MB Channels: 2 Width: 64-bit Data Rate: 3200 MT/s
PAGE SIZE in KB: 4.000000 
PAGE SIZE in MB: 0.003906 
PAGE offset in bits: 12 
CEASER-S_LLC:0
MIRAGE : 1
CEASER_LATENCY:3
REMAP : OFF
Partitions : 1
Multi-Step : OFF
BFS : OFF

CPU 0 runs /home/anubhav/spec_2017/625.x264_s-20B.champsimtrace.xz
CPU 1 runs /home/anubhav/spec_2017/625.x264_s-20B.champsimtrace.xz
CPU 2 runs /home/anubhav/spec_2017/625.x264_s-20B.champsimtrace.xz
CPU 3 runs /home/anubhav/spec_2017/625.x264_s-20B.champsimtrace.xz
CPU 4 runs /home/anubhav/spec_2017/625.x264_s-20B.champsimtrace.xz
CPU 5 runs /home/anubhav/spec_2017/625.x264_s-20B.champsimtrace.xz
CPU 6 runs /home/anubhav/spec_2017/625.x264_s-20B.champsimtrace.xz
CPU 7 runs /home/anubhav/spec_2017/625.x264_s-20B.champsimtrace.xz
CPU 0 Bimodal branch predictor
Initialize Hawkeye state
Initialize Hawkeye state
Initialize Hawkeye state
Initialize Hawkeye state
Initialize Hawkeye state
Initialize Hawkeye state
Initialize Hawkeye state
Initialize Hawkeye state
CPU 1 Bimodal branch predictor
Initialize Hawkeye state
Initialize Hawkeye state
Initialize Hawkeye state
Initialize Hawkeye state
Initialize Hawkeye state
Initialize Hawkeye state
Initialize Hawkeye state
Initialize Hawkeye state
CPU 2 Bimodal branch predictor
Initialize Hawkeye state
Initialize Hawkeye state
Initialize Hawkeye state
Initialize Hawkeye state
Initialize Hawkeye state
Initialize Hawkeye state
Initialize Hawkeye state
Initialize Hawkeye state
CPU 3 Bimodal branch predictor
Initialize Hawkeye state
Initialize Hawkeye state
Initialize Hawkeye state
Initialize Hawkeye state
Initialize Hawkeye state
Initialize Hawkeye state
Initialize Hawkeye state
Initialize Hawkeye state
CPU 4 Bimodal branch predictor
Initialize Hawkeye state
Initialize Hawkeye state
Initialize Hawkeye state
Initialize Hawkeye state
Initialize Hawkeye state
Initialize Hawkeye state
Initialize Hawkeye state
Initialize Hawkeye state
CPU 5 Bimodal branch predictor
Initialize Hawkeye state
Initialize Hawkeye state
Initialize Hawkeye state
Initialize Hawkeye state
Initialize Hawkeye state
Initialize Hawkeye state
Initialize Hawkeye state
Initialize Hawkeye state
CPU 6 Bimodal branch predictor
Initialize Hawkeye state
Initialize Hawkeye state
Initialize Hawkeye state
Initialize Hawkeye state
Initialize Hawkeye state
Initialize Hawkeye state
Initialize Hawkeye state
Initialize Hawkeye state
CPU 7 Bimodal branch predictor
Initialize Hawkeye state
Initialize Hawkeye state
Initialize Hawkeye state
Initialize Hawkeye state
Initialize Hawkeye state
Initialize Hawkeye state
Initialize Hawkeye state
Initialize Hawkeye state
Heartbeat CPU 6 instructions: 10000001 cycles: 3619601 heartbeat IPC: 2.76274 cumulative IPC: 2.76274 (Simulation time: 0 hr 18 min 53 sec) 
 Total Blocks : 262144 Invalid Blocks : 77285
Heartbeat CPU 2 instructions: 10000001 cycles: 3619613 heartbeat IPC: 2.76273 cumulative IPC: 2.76273 (Simulation time: 0 hr 18 min 53 sec) 
 Total Blocks : 262144 Invalid Blocks : 77285
Heartbeat CPU 5 instructions: 10000001 cycles: 3619639 heartbeat IPC: 2.76271 cumulative IPC: 2.76271 (Simulation time: 0 hr 18 min 53 sec) 
 Total Blocks : 262144 Invalid Blocks : 77285
Heartbeat CPU 4 instructions: 10000001 cycles: 3619652 heartbeat IPC: 2.7627 cumulative IPC: 2.7627 (Simulation time: 0 hr 18 min 53 sec) 
 Total Blocks : 262144 Invalid Blocks : 77285
Heartbeat CPU 7 instructions: 10000001 cycles: 3619696 heartbeat IPC: 2.76266 cumulative IPC: 2.76266 (Simulation time: 0 hr 18 min 53 sec) 
 Total Blocks : 262144 Invalid Blocks : 77285
Heartbeat CPU 1 instructions: 10000001 cycles: 3619700 heartbeat IPC: 2.76266 cumulative IPC: 2.76266 (Simulation time: 0 hr 18 min 53 sec) 
 Total Blocks : 262144 Invalid Blocks : 77285
Heartbeat CPU 3 instructions: 10000001 cycles: 3619724 heartbeat IPC: 2.76264 cumulative IPC: 2.76264 (Simulation time: 0 hr 18 min 53 sec) 
 Total Blocks : 262144 Invalid Blocks : 77285
Heartbeat CPU 0 instructions: 10000001 cycles: 3619731 heartbeat IPC: 2.76264 cumulative IPC: 2.76264 (Simulation time: 0 hr 18 min 53 sec) 
 Total Blocks : 262144 Invalid Blocks : 77285
Heartbeat CPU 2 instructions: 20000001 cycles: 7691689 heartbeat IPC: 2.45575 cumulative IPC: 2.60021 (Simulation time: 0 hr 35 min 24 sec) 
 Total Blocks : 262144 Invalid Blocks : 47305
Heartbeat CPU 7 instructions: 20000001 cycles: 7691769 heartbeat IPC: 2.45575 cumulative IPC: 2.60018 (Simulation time: 0 hr 35 min 24 sec) 
 Total Blocks : 262144 Invalid Blocks : 47305
Heartbeat CPU 6 instructions: 20000001 cycles: 7691778 heartbeat IPC: 2.45569 cumulative IPC: 2.60018 (Simulation time: 0 hr 35 min 24 sec) 
 Total Blocks : 262144 Invalid Blocks : 47305
Heartbeat CPU 5 instructions: 20000001 cycles: 7691795 heartbeat IPC: 2.4557 cumulative IPC: 2.60017 (Simulation time: 0 hr 35 min 24 sec) 
 Total Blocks : 262144 Invalid Blocks : 47305
Heartbeat CPU 1 instructions: 20000001 cycles: 7691834 heartbeat IPC: 2.45571 cumulative IPC: 2.60016 (Simulation time: 0 hr 35 min 24 sec) 
 Total Blocks : 262144 Invalid Blocks : 47305
Heartbeat CPU 3 instructions: 20000001 cycles: 7691877 heartbeat IPC: 2.4557 cumulative IPC: 2.60015 (Simulation time: 0 hr 35 min 24 sec) 
 Total Blocks : 262144 Invalid Blocks : 47305
Heartbeat CPU 4 instructions: 20000001 cycles: 7691883 heartbeat IPC: 2.45566 cumulative IPC: 2.60014 (Simulation time: 0 hr 35 min 24 sec) 
 Total Blocks : 262144 Invalid Blocks : 47305
Heartbeat CPU 0 instructions: 20000001 cycles: 7691960 heartbeat IPC: 2.45566 cumulative IPC: 2.60012 (Simulation time: 0 hr 35 min 24 sec) 
 Total Blocks : 262144 Invalid Blocks : 47305
Heartbeat CPU 2 instructions: 30000000 cycles: 11747589 heartbeat IPC: 2.46554 cumulative IPC: 2.55372 (Simulation time: 0 hr 51 min 44 sec) 
 Total Blocks : 262144 Invalid Blocks : 29408
Heartbeat CPU 7 instructions: 30000000 cycles: 11747641 heartbeat IPC: 2.46556 cumulative IPC: 2.5537 (Simulation time: 0 hr 51 min 44 sec) 
 Total Blocks : 262144 Invalid Blocks : 29408
Heartbeat CPU 1 instructions: 30000000 cycles: 11747658 heartbeat IPC: 2.46559 cumulative IPC: 2.5537 (Simulation time: 0 hr 51 min 44 sec) 
 Total Blocks : 262144 Invalid Blocks : 29408
Heartbeat CPU 4 instructions: 30000000 cycles: 11747694 heartbeat IPC: 2.4656 cumulative IPC: 2.55369 (Simulation time: 0 hr 51 min 44 sec) 
 Total Blocks : 262144 Invalid Blocks : 29408
Heartbeat CPU 5 instructions: 30000000 cycles: 11747694 heartbeat IPC: 2.46554 cumulative IPC: 2.55369 (Simulation time: 0 hr 51 min 44 sec) 
 Total Blocks : 262144 Invalid Blocks : 29408
Heartbeat CPU 6 instructions: 30000000 cycles: 11747708 heartbeat IPC: 2.46553 cumulative IPC: 2.55369 (Simulation time: 0 hr 51 min 44 sec) 
 Total Blocks : 262144 Invalid Blocks : 29408
Heartbeat CPU 3 instructions: 30000000 cycles: 11747947 heartbeat IPC: 2.46544 cumulative IPC: 2.55364 (Simulation time: 0 hr 51 min 44 sec) 
 Total Blocks : 262144 Invalid Blocks : 29408
Heartbeat CPU 0 instructions: 30000000 cycles: 11748017 heartbeat IPC: 2.46545 cumulative IPC: 2.55362 (Simulation time: 0 hr 51 min 44 sec) 
 Total Blocks : 262144 Invalid Blocks : 29408
Heartbeat CPU 2 instructions: 40000000 cycles: 15802247 heartbeat IPC: 2.4663 cumulative IPC: 2.53129 (Simulation time: 1 hr 8 min 14 sec) 
 Total Blocks : 262144 Invalid Blocks : 18284
Heartbeat CPU 7 instructions: 40000000 cycles: 15802274 heartbeat IPC: 2.46631 cumulative IPC: 2.53128 (Simulation time: 1 hr 8 min 14 sec) 
 Total Blocks : 262144 Invalid Blocks : 18284
Heartbeat CPU 1 instructions: 40000000 cycles: 15802278 heartbeat IPC: 2.46632 cumulative IPC: 2.53128 (Simulation time: 1 hr 8 min 14 sec) 
 Total Blocks : 262144 Invalid Blocks : 18284
Heartbeat CPU 5 instructions: 40000000 cycles: 15802317 heartbeat IPC: 2.46632 cumulative IPC: 2.53127 (Simulation time: 1 hr 8 min 14 sec) 
 Total Blocks : 262144 Invalid Blocks : 18284
Heartbeat CPU 6 instructions: 40000000 cycles: 15802317 heartbeat IPC: 2.46633 cumulative IPC: 2.53127 (Simulation time: 1 hr 8 min 14 sec) 
 Total Blocks : 262144 Invalid Blocks : 18284
Heartbeat CPU 4 instructions: 40000000 cycles: 15802345 heartbeat IPC: 2.4663 cumulative IPC: 2.53127 (Simulation time: 1 hr 8 min 14 sec) 
 Total Blocks : 262144 Invalid Blocks : 18284
Heartbeat CPU 0 instructions: 40000000 cycles: 15802683 heartbeat IPC: 2.46629 cumulative IPC: 2.53122 (Simulation time: 1 hr 8 min 14 sec) 
 Total Blocks : 262144 Invalid Blocks : 18284
Heartbeat CPU 3 instructions: 40000000 cycles: 15802686 heartbeat IPC: 2.46625 cumulative IPC: 2.53122 (Simulation time: 1 hr 8 min 14 sec) 
 Total Blocks : 262144 Invalid Blocks : 18284
Heartbeat CPU 2 instructions: 50000002 cycles: 19854545 heartbeat IPC: 2.46774 cumulative IPC: 2.51832 (Simulation time: 1 hr 24 min 17 sec) 
 Total Blocks : 262144 Invalid Blocks : 11449
Heartbeat CPU 1 instructions: 50000002 cycles: 19854587 heartbeat IPC: 2.46773 cumulative IPC: 2.51831 (Simulation time: 1 hr 24 min 17 sec) 
 Total Blocks : 262144 Invalid Blocks : 11449
Heartbeat CPU 7 instructions: 50000002 cycles: 19854606 heartbeat IPC: 2.46772 cumulative IPC: 2.51831 (Simulation time: 1 hr 24 min 17 sec) 
 Total Blocks : 262144 Invalid Blocks : 11449
Heartbeat CPU 5 instructions: 50000002 cycles: 19854677 heartbeat IPC: 2.4677 cumulative IPC: 2.5183 (Simulation time: 1 hr 24 min 17 sec) 
 Total Blocks : 262144 Invalid Blocks : 11449
Heartbeat CPU 4 instructions: 50000002 cycles: 19854711 heartbeat IPC: 2.46769 cumulative IPC: 2.51829 (Simulation time: 1 hr 24 min 17 sec) 
 Total Blocks : 262144 Invalid Blocks : 11449
Heartbeat CPU 6 instructions: 50000002 cycles: 19854711 heartbeat IPC: 2.46768 cumulative IPC: 2.51829 (Simulation time: 1 hr 24 min 17 sec) 
 Total Blocks : 262144 Invalid Blocks : 11449
Heartbeat CPU 3 instructions: 50000002 cycles: 19855267 heartbeat IPC: 2.46756 cumulative IPC: 2.51822 (Simulation time: 1 hr 24 min 17 sec) 
 Total Blocks : 262144 Invalid Blocks : 11449
Heartbeat CPU 0 instructions: 50000002 cycles: 19855310 heartbeat IPC: 2.46754 cumulative IPC: 2.51822 (Simulation time: 1 hr 24 min 17 sec) 
 Total Blocks : 262144 Invalid Blocks : 11449
Heartbeat CPU 1 instructions: 60000003 cycles: 23909762 heartbeat IPC: 2.46599 cumulative IPC: 2.50944 (Simulation time: 1 hr 40 min 45 sec) 
 Total Blocks : 262144 Invalid Blocks : 7144
Heartbeat CPU 2 instructions: 60000003 cycles: 23909843 heartbeat IPC: 2.46591 cumulative IPC: 2.50943 (Simulation time: 1 hr 40 min 45 sec) 
 Total Blocks : 262144 Invalid Blocks : 7144
Heartbeat CPU 7 instructions: 60000003 cycles: 23909859 heartbeat IPC: 2.46594 cumulative IPC: 2.50943 (Simulation time: 1 hr 40 min 45 sec) 
 Total Blocks : 262144 Invalid Blocks : 7144
Heartbeat CPU 6 instructions: 60000003 cycles: 23909944 heartbeat IPC: 2.46595 cumulative IPC: 2.50942 (Simulation time: 1 hr 40 min 45 sec) 
 Total Blocks : 262144 Invalid Blocks : 7144
Heartbeat CPU 4 instructions: 60000003 cycles: 23909946 heartbeat IPC: 2.46595 cumulative IPC: 2.50942 (Simulation time: 1 hr 40 min 45 sec) 
 Total Blocks : 262144 Invalid Blocks : 7144
Heartbeat CPU 5 instructions: 60000003 cycles: 23910016 heartbeat IPC: 2.46589 cumulative IPC: 2.50941 (Simulation time: 1 hr 40 min 45 sec) 
 Total Blocks : 262144 Invalid Blocks : 7144
Heartbeat CPU 3 instructions: 60000003 cycles: 23910541 heartbeat IPC: 2.46592 cumulative IPC: 2.50935 (Simulation time: 1 hr 40 min 45 sec) 
 Total Blocks : 262144 Invalid Blocks : 7144
Heartbeat CPU 0 instructions: 60000003 cycles: 23910564 heartbeat IPC: 2.46594 cumulative IPC: 2.50935 (Simulation time: 1 hr 40 min 45 sec) 
 Total Blocks : 262144 Invalid Blocks : 7144
Heartbeat CPU 1 instructions: 70000002 cycles: 27966267 heartbeat IPC: 2.46518 cumulative IPC: 2.50302 (Simulation time: 1 hr 56 min 58 sec) 
 Total Blocks : 262144 Invalid Blocks : 4513
Heartbeat CPU 7 instructions: 70000002 cycles: 27966372 heartbeat IPC: 2.46517 cumulative IPC: 2.50301 (Simulation time: 1 hr 56 min 58 sec) 
 Total Blocks : 262144 Invalid Blocks : 4512
Heartbeat CPU 2 instructions: 70000002 cycles: 27966402 heartbeat IPC: 2.46514 cumulative IPC: 2.503 (Simulation time: 1 hr 56 min 58 sec) 
 Total Blocks : 262144 Invalid Blocks : 4512
Heartbeat CPU 6 instructions: 70000002 cycles: 27966509 heartbeat IPC: 2.46514 cumulative IPC: 2.50299 (Simulation time: 1 hr 56 min 58 sec) 
 Total Blocks : 262144 Invalid Blocks : 4512
Heartbeat CPU 4 instructions: 70000002 cycles: 27966514 heartbeat IPC: 2.46514 cumulative IPC: 2.50299 (Simulation time: 1 hr 56 min 58 sec) 
 Total Blocks : 262144 Invalid Blocks : 4512
Heartbeat CPU 5 instructions: 70000002 cycles: 27966581 heartbeat IPC: 2.46514 cumulative IPC: 2.50299 (Simulation time: 1 hr 56 min 58 sec) 
 Total Blocks : 262144 Invalid Blocks : 4512
Heartbeat CPU 0 instructions: 70000002 cycles: 27967117 heartbeat IPC: 2.46515 cumulative IPC: 2.50294 (Simulation time: 1 hr 56 min 58 sec) 
 Total Blocks : 262144 Invalid Blocks : 4512
Heartbeat CPU 3 instructions: 70000002 cycles: 27967162 heartbeat IPC: 2.46511 cumulative IPC: 2.50294 (Simulation time: 1 hr 56 min 58 sec) 
 Total Blocks : 262144 Invalid Blocks : 4512
Heartbeat CPU 1 instructions: 80000003 cycles: 32025603 heartbeat IPC: 2.46346 cumulative IPC: 2.498 (Simulation time: 2 hr 13 min 49 sec) 
 Total Blocks : 262144 Invalid Blocks : 2900
Heartbeat CPU 7 instructions: 80000003 cycles: 32025689 heartbeat IPC: 2.46347 cumulative IPC: 2.49799 (Simulation time: 2 hr 13 min 49 sec) 
 Total Blocks : 262144 Invalid Blocks : 2899
Heartbeat CPU 2 instructions: 80000003 cycles: 32025729 heartbeat IPC: 2.46346 cumulative IPC: 2.49799 (Simulation time: 2 hr 13 min 49 sec) 
 Total Blocks : 262144 Invalid Blocks : 2899
Heartbeat CPU 6 instructions: 80000003 cycles: 32025841 heartbeat IPC: 2.46346 cumulative IPC: 2.49798 (Simulation time: 2 hr 13 min 49 sec) 
 Total Blocks : 262144 Invalid Blocks : 2899
Heartbeat CPU 4 instructions: 80000003 cycles: 32025900 heartbeat IPC: 2.46343 cumulative IPC: 2.49798 (Simulation time: 2 hr 13 min 49 sec) 
 Total Blocks : 262144 Invalid Blocks : 2898
Heartbeat CPU 5 instructions: 80000003 cycles: 32025930 heartbeat IPC: 2.46345 cumulative IPC: 2.49798 (Simulation time: 2 hr 13 min 50 sec) 
 Total Blocks : 262144 Invalid Blocks : 2898
Heartbeat CPU 3 instructions: 80000003 cycles: 32026548 heartbeat IPC: 2.46343 cumulative IPC: 2.49793 (Simulation time: 2 hr 13 min 50 sec) 
 Total Blocks : 262144 Invalid Blocks : 2896
Heartbeat CPU 0 instructions: 80000003 cycles: 32026566 heartbeat IPC: 2.46339 cumulative IPC: 2.49793 (Simulation time: 2 hr 13 min 50 sec) 
 Total Blocks : 262144 Invalid Blocks : 2896
Heartbeat CPU 7 instructions: 90000000 cycles: 36211397 heartbeat IPC: 2.38908 cumulative IPC: 2.48541 (Simulation time: 2 hr 34 min 14 sec) 
 Total Blocks : 262144 Invalid Blocks : 121
Heartbeat CPU 2 instructions: 90000000 cycles: 36211453 heartbeat IPC: 2.38907 cumulative IPC: 2.4854 (Simulation time: 2 hr 34 min 14 sec) 
 Total Blocks : 262144 Invalid Blocks : 121
Heartbeat CPU 1 instructions: 90000000 cycles: 36211479 heartbeat IPC: 2.38899 cumulative IPC: 2.4854 (Simulation time: 2 hr 34 min 14 sec) 
 Total Blocks : 262144 Invalid Blocks : 121
Heartbeat CPU 6 instructions: 90000000 cycles: 36211558 heartbeat IPC: 2.38908 cumulative IPC: 2.48539 (Simulation time: 2 hr 34 min 14 sec) 
 Total Blocks : 262144 Invalid Blocks : 121
Heartbeat CPU 4 instructions: 90000000 cycles: 36211769 heartbeat IPC: 2.38899 cumulative IPC: 2.48538 (Simulation time: 2 hr 34 min 14 sec) 
 Total Blocks : 262144 Invalid Blocks : 121
Heartbeat CPU 5 instructions: 90000000 cycles: 36211809 heartbeat IPC: 2.38898 cumulative IPC: 2.48538 (Simulation time: 2 hr 34 min 14 sec) 
 Total Blocks : 262144 Invalid Blocks : 121
Heartbeat CPU 0 instructions: 90000000 cycles: 36212283 heartbeat IPC: 2.38908 cumulative IPC: 2.48534 (Simulation time: 2 hr 34 min 14 sec) 
 Total Blocks : 262144 Invalid Blocks : 121
Heartbeat CPU 3 instructions: 90000000 cycles: 36212347 heartbeat IPC: 2.38903 cumulative IPC: 2.48534 (Simulation time: 2 hr 34 min 14 sec) 
 Total Blocks : 262144 Invalid Blocks : 121
Heartbeat CPU 7 instructions: 100000001 cycles: 40127606 heartbeat IPC: 2.55349 cumulative IPC: 2.49205 (Simulation time: 2 hr 57 min 47 sec) 
 Total Blocks : 262144 Invalid Blocks : 71
Heartbeat CPU 2 instructions: 100000001 cycles: 40127656 heartbeat IPC: 2.55349 cumulative IPC: 2.49205 (Simulation time: 2 hr 57 min 47 sec) 
 Total Blocks : 262144 Invalid Blocks : 71
Heartbeat CPU 1 instructions: 100000001 cycles: 40127702 heartbeat IPC: 2.55348 cumulative IPC: 2.49204 (Simulation time: 2 hr 57 min 47 sec) 
 Total Blocks : 262144 Invalid Blocks : 71
Heartbeat CPU 6 instructions: 100000001 cycles: 40127816 heartbeat IPC: 2.55346 cumulative IPC: 2.49204 (Simulation time: 2 hr 57 min 47 sec) 
 Total Blocks : 262144 Invalid Blocks : 71
Heartbeat CPU 4 instructions: 100000001 cycles: 40127990 heartbeat IPC: 2.55348 cumulative IPC: 2.49203 (Simulation time: 2 hr 57 min 47 sec) 
 Total Blocks : 262144 Invalid Blocks : 71
Heartbeat CPU 5 instructions: 100000001 cycles: 40127991 heartbeat IPC: 2.55351 cumulative IPC: 2.49203 (Simulation time: 2 hr 57 min 47 sec) 
 Total Blocks : 262144 Invalid Blocks : 71
Heartbeat CPU 0 instructions: 100000001 cycles: 40128480 heartbeat IPC: 2.5535 cumulative IPC: 2.492 (Simulation time: 2 hr 57 min 47 sec) 
 Total Blocks : 262144 Invalid Blocks : 71
Heartbeat CPU 3 instructions: 100000001 cycles: 40128544 heartbeat IPC: 2.5535 cumulative IPC: 2.49199 (Simulation time: 2 hr 57 min 47 sec) 
 Total Blocks : 262144 Invalid Blocks : 71
Heartbeat CPU 7 instructions: 110000000 cycles: 43746377 heartbeat IPC: 2.76337 cumulative IPC: 2.51449 (Simulation time: 3 hr 15 min 51 sec) 
 Total Blocks : 262144 Invalid Blocks : 36
Heartbeat CPU 2 instructions: 110000000 cycles: 43746473 heartbeat IPC: 2.76333 cumulative IPC: 2.51449 (Simulation time: 3 hr 15 min 51 sec) 
 Total Blocks : 262144 Invalid Blocks : 36
Heartbeat CPU 6 instructions: 110000000 cycles: 43746493 heartbeat IPC: 2.76344 cumulative IPC: 2.51449 (Simulation time: 3 hr 15 min 51 sec) 
 Total Blocks : 262144 Invalid Blocks : 36
Heartbeat CPU 1 instructions: 110000000 cycles: 43746520 heartbeat IPC: 2.76333 cumulative IPC: 2.51449 (Simulation time: 3 hr 15 min 51 sec) 
 Total Blocks : 262144 Invalid Blocks : 36
Heartbeat CPU 4 instructions: 110000000 cycles: 43746831 heartbeat IPC: 2.76332 cumulative IPC: 2.51447 (Simulation time: 3 hr 15 min 51 sec) 
 Total Blocks : 262144 Invalid Blocks : 36
Heartbeat CPU 5 instructions: 110000000 cycles: 43746897 heartbeat IPC: 2.76327 cumulative IPC: 2.51446 (Simulation time: 3 hr 15 min 51 sec) 
 Total Blocks : 262144 Invalid Blocks : 36
Heartbeat CPU 0 instructions: 110000000 cycles: 43747181 heartbeat IPC: 2.76342 cumulative IPC: 2.51445 (Simulation time: 3 hr 15 min 51 sec) 
 Total Blocks : 262144 Invalid Blocks : 36
Heartbeat CPU 3 instructions: 110000000 cycles: 43747432 heartbeat IPC: 2.76328 cumulative IPC: 2.51443 (Simulation time: 3 hr 15 min 51 sec) 
 Total Blocks : 262144 Invalid Blocks : 36
Heartbeat CPU 7 instructions: 120000001 cycles: 47908739 heartbeat IPC: 2.40248 cumulative IPC: 2.50476 (Simulation time: 3 hr 29 min 58 sec) 
 Total Blocks : 262144 Invalid Blocks : 33
Heartbeat CPU 2 instructions: 120000001 cycles: 47908836 heartbeat IPC: 2.40248 cumulative IPC: 2.50476 (Simulation time: 3 hr 29 min 58 sec) 
 Total Blocks : 262144 Invalid Blocks : 33
Heartbeat CPU 6 instructions: 120000001 cycles: 47908855 heartbeat IPC: 2.40248 cumulative IPC: 2.50476 (Simulation time: 3 hr 29 min 58 sec) 
 Total Blocks : 262144 Invalid Blocks : 33
Heartbeat CPU 1 instructions: 120000001 cycles: 47908886 heartbeat IPC: 2.40248 cumulative IPC: 2.50475 (Simulation time: 3 hr 29 min 58 sec) 
 Total Blocks : 262144 Invalid Blocks : 33
Heartbeat CPU 4 instructions: 120000001 cycles: 47909197 heartbeat IPC: 2.40248 cumulative IPC: 2.50474 (Simulation time: 3 hr 29 min 59 sec) 
 Total Blocks : 262144 Invalid Blocks : 33
Heartbeat CPU 5 instructions: 120000001 cycles: 47909259 heartbeat IPC: 2.40248 cumulative IPC: 2.50473 (Simulation time: 3 hr 29 min 59 sec) 
 Total Blocks : 262144 Invalid Blocks : 33
Heartbeat CPU 0 instructions: 120000001 cycles: 47909543 heartbeat IPC: 2.40248 cumulative IPC: 2.50472 (Simulation time: 3 hr 29 min 59 sec) 
 Total Blocks : 262144 Invalid Blocks : 33
Heartbeat CPU 3 instructions: 120000001 cycles: 47909800 heartbeat IPC: 2.40248 cumulative IPC: 2.50471 (Simulation time: 3 hr 29 min 59 sec) 
 Total Blocks : 262144 Invalid Blocks : 33
Heartbeat CPU 7 instructions: 130000003 cycles: 52088469 heartbeat IPC: 2.3925 cumulative IPC: 2.49575 (Simulation time: 3 hr 44 min 4 sec) 
 Total Blocks : 262144 Invalid Blocks : 33
Heartbeat CPU 2 instructions: 130000003 cycles: 52088566 heartbeat IPC: 2.3925 cumulative IPC: 2.49575 (Simulation time: 3 hr 44 min 4 sec) 
 Total Blocks : 262144 Invalid Blocks : 33
Heartbeat CPU 6 instructions: 130000003 cycles: 52088585 heartbeat IPC: 2.3925 cumulative IPC: 2.49575 (Simulation time: 3 hr 44 min 4 sec) 
 Total Blocks : 262144 Invalid Blocks : 33
Heartbeat CPU 1 instructions: 130000003 cycles: 52088616 heartbeat IPC: 2.3925 cumulative IPC: 2.49575 (Simulation time: 3 hr 44 min 4 sec) 
 Total Blocks : 262144 Invalid Blocks : 33
Heartbeat CPU 4 instructions: 130000003 cycles: 52088924 heartbeat IPC: 2.3925 cumulative IPC: 2.49573 (Simulation time: 3 hr 44 min 4 sec) 
 Total Blocks : 262144 Invalid Blocks : 33
Heartbeat CPU 5 instructions: 130000003 cycles: 52088989 heartbeat IPC: 2.3925 cumulative IPC: 2.49573 (Simulation time: 3 hr 44 min 4 sec) 
 Total Blocks : 262144 Invalid Blocks : 33
Heartbeat CPU 0 instructions: 130000003 cycles: 52089273 heartbeat IPC: 2.3925 cumulative IPC: 2.49572 (Simulation time: 3 hr 44 min 5 sec) 
 Total Blocks : 262144 Invalid Blocks : 33
Heartbeat CPU 3 instructions: 130000003 cycles: 52089530 heartbeat IPC: 2.3925 cumulative IPC: 2.4957 (Simulation time: 3 hr 44 min 5 sec) 
 Total Blocks : 262144 Invalid Blocks : 33
Heartbeat CPU 7 instructions: 140000001 cycles: 56268233 heartbeat IPC: 2.39248 cumulative IPC: 2.48808 (Simulation time: 3 hr 57 min 59 sec) 
 Total Blocks : 262144 Invalid Blocks : 30
Heartbeat CPU 2 instructions: 140000001 cycles: 56268330 heartbeat IPC: 2.39248 cumulative IPC: 2.48808 (Simulation time: 3 hr 57 min 59 sec) 
 Total Blocks : 262144 Invalid Blocks : 30
Heartbeat CPU 6 instructions: 140000001 cycles: 56268349 heartbeat IPC: 2.39248 cumulative IPC: 2.48808 (Simulation time: 3 hr 57 min 59 sec) 
 Total Blocks : 262144 Invalid Blocks : 30
Heartbeat CPU 1 instructions: 140000001 cycles: 56268380 heartbeat IPC: 2.39248 cumulative IPC: 2.48808 (Simulation time: 3 hr 57 min 59 sec) 
 Total Blocks : 262144 Invalid Blocks : 30
Heartbeat CPU 4 instructions: 140000001 cycles: 56268688 heartbeat IPC: 2.39248 cumulative IPC: 2.48806 (Simulation time: 3 hr 57 min 59 sec) 
 Total Blocks : 262144 Invalid Blocks : 30
Heartbeat CPU 5 instructions: 140000001 cycles: 56268752 heartbeat IPC: 2.39248 cumulative IPC: 2.48806 (Simulation time: 3 hr 57 min 59 sec) 
 Total Blocks : 262144 Invalid Blocks : 30
Heartbeat CPU 0 instructions: 140000001 cycles: 56269037 heartbeat IPC: 2.39248 cumulative IPC: 2.48805 (Simulation time: 3 hr 57 min 59 sec) 
 Total Blocks : 262144 Invalid Blocks : 30
Heartbeat CPU 3 instructions: 140000001 cycles: 56269294 heartbeat IPC: 2.39248 cumulative IPC: 2.48804 (Simulation time: 3 hr 58 min 0 sec) 
 Total Blocks : 262144 Invalid Blocks : 30
Heartbeat CPU 7 instructions: 150000002 cycles: 60466514 heartbeat IPC: 2.38193 cumulative IPC: 2.48071 (Simulation time: 4 hr 11 min 27 sec) 
 Total Blocks : 262144 Invalid Blocks : 29
Heartbeat CPU 2 instructions: 150000002 cycles: 60466611 heartbeat IPC: 2.38193 cumulative IPC: 2.48071 (Simulation time: 4 hr 11 min 27 sec) 
 Total Blocks : 262144 Invalid Blocks : 29
Heartbeat CPU 6 instructions: 150000002 cycles: 60466630 heartbeat IPC: 2.38193 cumulative IPC: 2.48071 (Simulation time: 4 hr 11 min 27 sec) 
 Total Blocks : 262144 Invalid Blocks : 29
Heartbeat CPU 1 instructions: 150000002 cycles: 60466661 heartbeat IPC: 2.38193 cumulative IPC: 2.48071 (Simulation time: 4 hr 11 min 27 sec) 
 Total Blocks : 262144 Invalid Blocks : 29
Heartbeat CPU 4 instructions: 150000002 cycles: 60466969 heartbeat IPC: 2.38193 cumulative IPC: 2.48069 (Simulation time: 4 hr 11 min 27 sec) 
 Total Blocks : 262144 Invalid Blocks : 29
Heartbeat CPU 5 instructions: 150000002 cycles: 60467033 heartbeat IPC: 2.38193 cumulative IPC: 2.48069 (Simulation time: 4 hr 11 min 27 sec) 
 Total Blocks : 262144 Invalid Blocks : 29
Heartbeat CPU 0 instructions: 150000002 cycles: 60467318 heartbeat IPC: 2.38193 cumulative IPC: 2.48068 (Simulation time: 4 hr 11 min 28 sec) 
 Total Blocks : 262144 Invalid Blocks : 29
Heartbeat CPU 3 instructions: 150000002 cycles: 60467575 heartbeat IPC: 2.38193 cumulative IPC: 2.48067 (Simulation time: 4 hr 11 min 28 sec) 
 Total Blocks : 262144 Invalid Blocks : 29
Heartbeat CPU 7 instructions: 160000000 cycles: 64643000 heartbeat IPC: 2.39436 cumulative IPC: 2.47513 (Simulation time: 4 hr 24 min 45 sec) 
 Total Blocks : 262144 Invalid Blocks : 29
Heartbeat CPU 2 instructions: 160000000 cycles: 64643097 heartbeat IPC: 2.39436 cumulative IPC: 2.47513 (Simulation time: 4 hr 24 min 45 sec) 
 Total Blocks : 262144 Invalid Blocks : 29
Heartbeat CPU 6 instructions: 160000000 cycles: 64643116 heartbeat IPC: 2.39436 cumulative IPC: 2.47513 (Simulation time: 4 hr 24 min 45 sec) 
 Total Blocks : 262144 Invalid Blocks : 29
Heartbeat CPU 1 instructions: 160000000 cycles: 64643147 heartbeat IPC: 2.39436 cumulative IPC: 2.47513 (Simulation time: 4 hr 24 min 45 sec) 
 Total Blocks : 262144 Invalid Blocks : 29
Heartbeat CPU 4 instructions: 160000000 cycles: 64643455 heartbeat IPC: 2.39436 cumulative IPC: 2.47512 (Simulation time: 4 hr 24 min 45 sec) 
 Total Blocks : 262144 Invalid Blocks : 29
Heartbeat CPU 5 instructions: 160000000 cycles: 64643519 heartbeat IPC: 2.39436 cumulative IPC: 2.47511 (Simulation time: 4 hr 24 min 45 sec) 
 Total Blocks : 262144 Invalid Blocks : 29
Heartbeat CPU 0 instructions: 160000000 cycles: 64643804 heartbeat IPC: 2.39436 cumulative IPC: 2.4751 (Simulation time: 4 hr 24 min 45 sec) 
 Total Blocks : 262144 Invalid Blocks : 29
Heartbeat CPU 3 instructions: 160000000 cycles: 64644061 heartbeat IPC: 2.39436 cumulative IPC: 2.47509 (Simulation time: 4 hr 24 min 45 sec) 
 Total Blocks : 262144 Invalid Blocks : 29
Heartbeat CPU 7 instructions: 170000000 cycles: 68830065 heartbeat IPC: 2.38831 cumulative IPC: 2.46985 (Simulation time: 4 hr 38 min 41 sec) 
 Total Blocks : 262144 Invalid Blocks : 28
Heartbeat CPU 2 instructions: 170000000 cycles: 68830162 heartbeat IPC: 2.38831 cumulative IPC: 2.46985 (Simulation time: 4 hr 38 min 41 sec) 
 Total Blocks : 262144 Invalid Blocks : 28
Heartbeat CPU 6 instructions: 170000000 cycles: 68830181 heartbeat IPC: 2.38831 cumulative IPC: 2.46985 (Simulation time: 4 hr 38 min 41 sec) 
 Total Blocks : 262144 Invalid Blocks : 28
Heartbeat CPU 1 instructions: 170000000 cycles: 68830212 heartbeat IPC: 2.38831 cumulative IPC: 2.46985 (Simulation time: 4 hr 38 min 41 sec) 
 Total Blocks : 262144 Invalid Blocks : 28
Heartbeat CPU 4 instructions: 170000000 cycles: 68830520 heartbeat IPC: 2.38831 cumulative IPC: 2.46983 (Simulation time: 4 hr 38 min 41 sec) 
 Total Blocks : 262144 Invalid Blocks : 28
Heartbeat CPU 5 instructions: 170000000 cycles: 68830584 heartbeat IPC: 2.38831 cumulative IPC: 2.46983 (Simulation time: 4 hr 38 min 41 sec) 
 Total Blocks : 262144 Invalid Blocks : 28
Heartbeat CPU 0 instructions: 170000000 cycles: 68830869 heartbeat IPC: 2.38831 cumulative IPC: 2.46982 (Simulation time: 4 hr 38 min 41 sec) 
 Total Blocks : 262144 Invalid Blocks : 28
Heartbeat CPU 3 instructions: 170000000 cycles: 68831126 heartbeat IPC: 2.38831 cumulative IPC: 2.46981 (Simulation time: 4 hr 38 min 41 sec) 
 Total Blocks : 262144 Invalid Blocks : 28
Heartbeat CPU 7 instructions: 180000003 cycles: 72965307 heartbeat IPC: 2.41824 cumulative IPC: 2.46693 (Simulation time: 4 hr 52 min 26 sec) 
 Total Blocks : 262144 Invalid Blocks : 27
Heartbeat CPU 2 instructions: 180000003 cycles: 72965402 heartbeat IPC: 2.41824 cumulative IPC: 2.46692 (Simulation time: 4 hr 52 min 26 sec) 
 Total Blocks : 262144 Invalid Blocks : 27
Heartbeat CPU 6 instructions: 180000003 cycles: 72965421 heartbeat IPC: 2.41824 cumulative IPC: 2.46692 (Simulation time: 4 hr 52 min 26 sec) 
 Total Blocks : 262144 Invalid Blocks : 27
Heartbeat CPU 1 instructions: 180000003 cycles: 72965454 heartbeat IPC: 2.41824 cumulative IPC: 2.46692 (Simulation time: 4 hr 52 min 26 sec) 
 Total Blocks : 262144 Invalid Blocks : 27
Heartbeat CPU 4 instructions: 180000003 cycles: 72965762 heartbeat IPC: 2.41824 cumulative IPC: 2.46691 (Simulation time: 4 hr 52 min 26 sec) 
 Total Blocks : 262144 Invalid Blocks : 27
Heartbeat CPU 5 instructions: 180000003 cycles: 72965826 heartbeat IPC: 2.41824 cumulative IPC: 2.46691 (Simulation time: 4 hr 52 min 26 sec) 
 Total Blocks : 262144 Invalid Blocks : 27
Heartbeat CPU 0 instructions: 180000003 cycles: 72966111 heartbeat IPC: 2.41824 cumulative IPC: 2.4669 (Simulation time: 4 hr 52 min 26 sec) 
 Total Blocks : 262144 Invalid Blocks : 27
Heartbeat CPU 3 instructions: 180000003 cycles: 72966368 heartbeat IPC: 2.41824 cumulative IPC: 2.46689 (Simulation time: 4 hr 52 min 26 sec) 
 Total Blocks : 262144 Invalid Blocks : 27
Heartbeat CPU 7 instructions: 190000003 cycles: 77088541 heartbeat IPC: 2.42528 cumulative IPC: 2.4647 (Simulation time: 5 hr 6 min 5 sec) 
 Total Blocks : 262144 Invalid Blocks : 25
Heartbeat CPU 2 instructions: 190000003 cycles: 77088636 heartbeat IPC: 2.42528 cumulative IPC: 2.4647 (Simulation time: 5 hr 6 min 5 sec) 
 Total Blocks : 262144 Invalid Blocks : 25
Heartbeat CPU 6 instructions: 190000003 cycles: 77088655 heartbeat IPC: 2.42528 cumulative IPC: 2.46469 (Simulation time: 5 hr 6 min 5 sec) 
 Total Blocks : 262144 Invalid Blocks : 25
Heartbeat CPU 1 instructions: 190000003 cycles: 77088688 heartbeat IPC: 2.42528 cumulative IPC: 2.46469 (Simulation time: 5 hr 6 min 5 sec) 
 Total Blocks : 262144 Invalid Blocks : 25
Heartbeat CPU 4 instructions: 190000003 cycles: 77088996 heartbeat IPC: 2.42528 cumulative IPC: 2.46468 (Simulation time: 5 hr 6 min 6 sec) 
 Total Blocks : 262144 Invalid Blocks : 25
Heartbeat CPU 5 instructions: 190000003 cycles: 77089060 heartbeat IPC: 2.42528 cumulative IPC: 2.46468 (Simulation time: 5 hr 6 min 6 sec) 
 Total Blocks : 262144 Invalid Blocks : 25
Heartbeat CPU 0 instructions: 190000003 cycles: 77089345 heartbeat IPC: 2.42528 cumulative IPC: 2.46467 (Simulation time: 5 hr 6 min 6 sec) 
 Total Blocks : 262144 Invalid Blocks : 25
Heartbeat CPU 3 instructions: 190000003 cycles: 77089602 heartbeat IPC: 2.42528 cumulative IPC: 2.46466 (Simulation time: 5 hr 6 min 6 sec) 
 Total Blocks : 262144 Invalid Blocks : 25
Heartbeat CPU 7 instructions: 200000001 cycles: 81232412 heartbeat IPC: 2.4132 cumulative IPC: 2.46207 (Simulation time: 5 hr 19 min 56 sec) 
 Total Blocks : 262144 Invalid Blocks : 23
Heartbeat CPU 2 instructions: 200000001 cycles: 81232519 heartbeat IPC: 2.4132 cumulative IPC: 2.46207 (Simulation time: 5 hr 19 min 56 sec) 
 Total Blocks : 262144 Invalid Blocks : 23
Heartbeat CPU 6 instructions: 200000001 cycles: 81232522 heartbeat IPC: 2.4132 cumulative IPC: 2.46207 (Simulation time: 5 hr 19 min 56 sec) 
 Total Blocks : 262144 Invalid Blocks : 23
Heartbeat CPU 1 instructions: 200000001 cycles: 81232571 heartbeat IPC: 2.4132 cumulative IPC: 2.46207 (Simulation time: 5 hr 19 min 56 sec) 
 Total Blocks : 262144 Invalid Blocks : 23
Heartbeat CPU 4 instructions: 200000001 cycles: 81232866 heartbeat IPC: 2.4132 cumulative IPC: 2.46206 (Simulation time: 5 hr 19 min 56 sec) 
 Total Blocks : 262144 Invalid Blocks : 23
Heartbeat CPU 5 instructions: 200000001 cycles: 81232939 heartbeat IPC: 2.4132 cumulative IPC: 2.46206 (Simulation time: 5 hr 19 min 56 sec) 
 Total Blocks : 262144 Invalid Blocks : 23
Heartbeat CPU 0 instructions: 200000001 cycles: 81233214 heartbeat IPC: 2.4132 cumulative IPC: 2.46205 (Simulation time: 5 hr 19 min 56 sec) 
 Total Blocks : 262144 Invalid Blocks : 23
Heartbeat CPU 3 instructions: 200000001 cycles: 81233478 heartbeat IPC: 2.4132 cumulative IPC: 2.46204 (Simulation time: 5 hr 19 min 56 sec) 
 Total Blocks : 262144 Invalid Blocks : 23

Warmup complete CPU 0 instructions: 200000550 cycles: 81233478 (Simulation time: 5 hr 19 min 56 sec) 
Warmup complete CPU 1 instructions: 200001832 cycles: 81233478 (Simulation time: 5 hr 19 min 56 sec) 
Warmup complete CPU 2 instructions: 200001922 cycles: 81233478 (Simulation time: 5 hr 19 min 56 sec) 
Warmup complete CPU 3 instructions: 200000001 cycles: 81233478 (Simulation time: 5 hr 19 min 56 sec) 
Warmup complete CPU 4 instructions: 200001122 cycles: 81233477 (Simulation time: 5 hr 19 min 56 sec) 
Warmup complete CPU 5 instructions: 200000875 cycles: 81233477 (Simulation time: 5 hr 19 min 56 sec) 
Warmup complete CPU 6 instructions: 200001917 cycles: 81233477 (Simulation time: 5 hr 19 min 56 sec) 
Warmup complete CPU 7 instructions: 200002319 cycles: 81233477 (Simulation time: 5 hr 19 min 56 sec) 

Heartbeat CPU 1 instructions: 210000003 cycles: 89278489 heartbeat IPC: 1.24287 cumulative IPC: 1.24278 (Simulation time: 5 hr 37 min 32 sec) 
 Total Blocks : 262144 Invalid Blocks : 23
Heartbeat CPU 2 instructions: 210000003 cycles: 89278540 heartbeat IPC: 1.24285 cumulative IPC: 1.24276 (Simulation time: 5 hr 37 min 32 sec) 
 Total Blocks : 262144 Invalid Blocks : 23
Heartbeat CPU 7 instructions: 210000003 cycles: 89278906 heartbeat IPC: 1.24278 cumulative IPC: 1.24265 (Simulation time: 5 hr 37 min 32 sec) 
 Total Blocks : 262144 Invalid Blocks : 23
Heartbeat CPU 0 instructions: 210000003 cycles: 89278957 heartbeat IPC: 1.24289 cumulative IPC: 1.24287 (Simulation time: 5 hr 37 min 32 sec) 
 Total Blocks : 262144 Invalid Blocks : 23
Heartbeat CPU 4 instructions: 210000003 cycles: 89279115 heartbeat IPC: 1.24282 cumulative IPC: 1.24277 (Simulation time: 5 hr 37 min 32 sec) 
 Total Blocks : 262144 Invalid Blocks : 23
Heartbeat CPU 6 instructions: 210000003 cycles: 89279166 heartbeat IPC: 1.24275 cumulative IPC: 1.24266 (Simulation time: 5 hr 37 min 32 sec) 
 Total Blocks : 262144 Invalid Blocks : 23
Heartbeat CPU 3 instructions: 210000003 cycles: 89279808 heartbeat IPC: 1.2428 cumulative IPC: 1.2428 (Simulation time: 5 hr 37 min 33 sec) 
 Total Blocks : 262144 Invalid Blocks : 23
Heartbeat CPU 5 instructions: 210000003 cycles: 89279955 heartbeat IPC: 1.2427 cumulative IPC: 1.24267 (Simulation time: 5 hr 37 min 33 sec) 
 Total Blocks : 262144 Invalid Blocks : 23
Heartbeat CPU 3 instructions: 220000000 cycles: 97349737 heartbeat IPC: 1.23917 cumulative IPC: 1.24098 (Simulation time: 5 hr 55 min 1 sec) 
 Total Blocks : 262144 Invalid Blocks : 22
Heartbeat CPU 6 instructions: 220000000 cycles: 97349788 heartbeat IPC: 1.23906 cumulative IPC: 1.24086 (Simulation time: 5 hr 55 min 1 sec) 
 Total Blocks : 262144 Invalid Blocks : 22
Heartbeat CPU 5 instructions: 220000000 cycles: 97349839 heartbeat IPC: 1.23917 cumulative IPC: 1.24092 (Simulation time: 5 hr 55 min 1 sec) 
 Total Blocks : 262144 Invalid Blocks : 22
Heartbeat CPU 1 instructions: 220000000 cycles: 97349937 heartbeat IPC: 1.23893 cumulative IPC: 1.24085 (Simulation time: 5 hr 55 min 1 sec) 
 Total Blocks : 262144 Invalid Blocks : 22
Heartbeat CPU 7 instructions: 220000000 cycles: 97350076 heartbeat IPC: 1.23898 cumulative IPC: 1.24081 (Simulation time: 5 hr 55 min 1 sec) 
 Total Blocks : 262144 Invalid Blocks : 22
Heartbeat CPU 2 instructions: 220000000 cycles: 97350130 heartbeat IPC: 1.23891 cumulative IPC: 1.24083 (Simulation time: 5 hr 55 min 1 sec) 
 Total Blocks : 262144 Invalid Blocks : 22
Heartbeat CPU 0 instructions: 220000000 cycles: 97350563 heartbeat IPC: 1.23891 cumulative IPC: 1.24089 (Simulation time: 5 hr 55 min 1 sec) 
 Total Blocks : 262144 Invalid Blocks : 22
Heartbeat CPU 4 instructions: 220000000 cycles: 97350787 heartbeat IPC: 1.2389 cumulative IPC: 1.24083 (Simulation time: 5 hr 55 min 1 sec) 
 Total Blocks : 262144 Invalid Blocks : 22
Heartbeat CPU 4 instructions: 230000000 cycles: 105418033 heartbeat IPC: 1.23958 cumulative IPC: 1.24041 (Simulation time: 6 hr 12 min 33 sec) 
 Total Blocks : 262144 Invalid Blocks : 20
Heartbeat CPU 2 instructions: 230000000 cycles: 105418118 heartbeat IPC: 1.23947 cumulative IPC: 1.24038 (Simulation time: 6 hr 12 min 33 sec) 
 Total Blocks : 262144 Invalid Blocks : 20
Heartbeat CPU 5 instructions: 230000000 cycles: 105418135 heartbeat IPC: 1.23942 cumulative IPC: 1.24042 (Simulation time: 6 hr 12 min 33 sec) 
 Total Blocks : 262144 Invalid Blocks : 20
Heartbeat CPU 6 instructions: 230000000 cycles: 105418259 heartbeat IPC: 1.23939 cumulative IPC: 1.24037 (Simulation time: 6 hr 12 min 33 sec) 
 Total Blocks : 262144 Invalid Blocks : 20
Heartbeat CPU 7 instructions: 230000000 cycles: 105418260 heartbeat IPC: 1.23944 cumulative IPC: 1.24035 (Simulation time: 6 hr 12 min 33 sec) 
 Total Blocks : 262144 Invalid Blocks : 20
Heartbeat CPU 3 instructions: 230000000 cycles: 105418272 heartbeat IPC: 1.23938 cumulative IPC: 1.24045 (Simulation time: 6 hr 12 min 33 sec) 
 Total Blocks : 262144 Invalid Blocks : 20
Heartbeat CPU 1 instructions: 230000000 cycles: 105418393 heartbeat IPC: 1.23939 cumulative IPC: 1.24037 (Simulation time: 6 hr 12 min 33 sec) 
 Total Blocks : 262144 Invalid Blocks : 20
Heartbeat CPU 0 instructions: 230000000 cycles: 105418537 heartbeat IPC: 1.23947 cumulative IPC: 1.24041 (Simulation time: 6 hr 12 min 33 sec) 
 Total Blocks : 262144 Invalid Blocks : 20
Heartbeat CPU 5 instructions: 240000000 cycles: 113468010 heartbeat IPC: 1.24226 cumulative IPC: 1.24088 (Simulation time: 6 hr 29 min 43 sec) 
 Total Blocks : 262144 Invalid Blocks : 20
Heartbeat CPU 2 instructions: 240000000 cycles: 113468212 heartbeat IPC: 1.24222 cumulative IPC: 1.24084 (Simulation time: 6 hr 29 min 43 sec) 
 Total Blocks : 262144 Invalid Blocks : 20
Heartbeat CPU 4 instructions: 240000000 cycles: 113468225 heartbeat IPC: 1.24221 cumulative IPC: 1.24086 (Simulation time: 6 hr 29 min 43 sec) 
 Total Blocks : 262144 Invalid Blocks : 20
Heartbeat CPU 3 instructions: 240000000 cycles: 113468263 heartbeat IPC: 1.24224 cumulative IPC: 1.2409 (Simulation time: 6 hr 29 min 43 sec) 
 Total Blocks : 262144 Invalid Blocks : 20
Heartbeat CPU 1 instructions: 240000000 cycles: 113468264 heartbeat IPC: 1.24226 cumulative IPC: 1.24084 (Simulation time: 6 hr 29 min 43 sec) 
 Total Blocks : 262144 Invalid Blocks : 20
Heartbeat CPU 6 instructions: 240000000 cycles: 113468743 heartbeat IPC: 1.24216 cumulative IPC: 1.24082 (Simulation time: 6 hr 29 min 43 sec) 
 Total Blocks : 262144 Invalid Blocks : 20
Heartbeat CPU 0 instructions: 240000000 cycles: 113468897 heartbeat IPC: 1.24218 cumulative IPC: 1.24085 (Simulation time: 6 hr 29 min 43 sec) 
 Total Blocks : 262144 Invalid Blocks : 20
Heartbeat CPU 7 instructions: 240000000 cycles: 113469058 heartbeat IPC: 1.24211 cumulative IPC: 1.24079 (Simulation time: 6 hr 29 min 43 sec) 
 Total Blocks : 262144 Invalid Blocks : 20
Heartbeat CPU 7 instructions: 250000003 cycles: 121528288 heartbeat IPC: 1.24081 cumulative IPC: 1.2408 (Simulation time: 6 hr 47 min 20 sec) 
 Total Blocks : 262144 Invalid Blocks : 20
Heartbeat CPU 1 instructions: 250000003 cycles: 121528313 heartbeat IPC: 1.24069 cumulative IPC: 1.24081 (Simulation time: 6 hr 47 min 20 sec) 
 Total Blocks : 262144 Invalid Blocks : 20
Heartbeat CPU 4 instructions: 250000003 cycles: 121528364 heartbeat IPC: 1.24067 cumulative IPC: 1.24082 (Simulation time: 6 hr 47 min 20 sec) 
 Total Blocks : 262144 Invalid Blocks : 20
Heartbeat CPU 3 instructions: 250000003 cycles: 121528412 heartbeat IPC: 1.24067 cumulative IPC: 1.24085 (Simulation time: 6 hr 47 min 20 sec) 
 Total Blocks : 262144 Invalid Blocks : 20
Heartbeat CPU 6 instructions: 250000003 cycles: 121528415 heartbeat IPC: 1.24075 cumulative IPC: 1.2408 (Simulation time: 6 hr 47 min 20 sec) 
 Total Blocks : 262144 Invalid Blocks : 20
Heartbeat CPU 5 instructions: 250000003 cycles: 121528540 heartbeat IPC: 1.24061 cumulative IPC: 1.24083 (Simulation time: 6 hr 47 min 21 sec) 
 Total Blocks : 262144 Invalid Blocks : 20
Heartbeat CPU 2 instructions: 250000003 cycles: 121528710 heartbeat IPC: 1.24062 cumulative IPC: 1.24079 (Simulation time: 6 hr 47 min 21 sec) 
 Total Blocks : 262144 Invalid Blocks : 20
Heartbeat CPU 0 instructions: 250000003 cycles: 121528850 heartbeat IPC: 1.2407 cumulative IPC: 1.24082 (Simulation time: 6 hr 47 min 21 sec) 
 Total Blocks : 262144 Invalid Blocks : 20
Heartbeat CPU 4 instructions: 260000000 cycles: 129605042 heartbeat IPC: 1.23813 cumulative IPC: 1.24037 (Simulation time: 7 hr 4 min 43 sec) 
 Total Blocks : 262144 Invalid Blocks : 19
Heartbeat CPU 2 instructions: 260000000 cycles: 129605246 heartbeat IPC: 1.23815 cumulative IPC: 1.24035 (Simulation time: 7 hr 4 min 44 sec) 
 Total Blocks : 262144 Invalid Blocks : 19
Heartbeat CPU 1 instructions: 260000000 cycles: 129605271 heartbeat IPC: 1.23809 cumulative IPC: 1.24035 (Simulation time: 7 hr 4 min 44 sec) 
 Total Blocks : 262144 Invalid Blocks : 19
Heartbeat CPU 0 instructions: 260000000 cycles: 129605297 heartbeat IPC: 1.23817 cumulative IPC: 1.24038 (Simulation time: 7 hr 4 min 44 sec) 
 Total Blocks : 262144 Invalid Blocks : 19
Heartbeat CPU 6 instructions: 260000000 cycles: 129605322 heartbeat IPC: 1.2381 cumulative IPC: 1.24035 (Simulation time: 7 hr 4 min 44 sec) 
 Total Blocks : 262144 Invalid Blocks : 19
Heartbeat CPU 3 instructions: 260000000 cycles: 129605348 heartbeat IPC: 1.23809 cumulative IPC: 1.24039 (Simulation time: 7 hr 4 min 44 sec) 
 Total Blocks : 262144 Invalid Blocks : 19
Heartbeat CPU 5 instructions: 260000000 cycles: 129605373 heartbeat IPC: 1.23811 cumulative IPC: 1.24037 (Simulation time: 7 hr 4 min 44 sec) 
 Total Blocks : 262144 Invalid Blocks : 19
Heartbeat CPU 7 instructions: 260000000 cycles: 129605399 heartbeat IPC: 1.23807 cumulative IPC: 1.24034 (Simulation time: 7 hr 4 min 44 sec) 
 Total Blocks : 262144 Invalid Blocks : 19
Heartbeat CPU 0 instructions: 270000002 cycles: 137679864 heartbeat IPC: 1.23846 cumulative IPC: 1.24011 (Simulation time: 7 hr 22 min 9 sec) 
 Total Blocks : 262144 Invalid Blocks : 17
Heartbeat CPU 2 instructions: 270000002 cycles: 137680044 heartbeat IPC: 1.23842 cumulative IPC: 1.24008 (Simulation time: 7 hr 22 min 9 sec) 
 Total Blocks : 262144 Invalid Blocks : 17
Heartbeat CPU 1 instructions: 270000002 cycles: 137680095 heartbeat IPC: 1.23842 cumulative IPC: 1.24008 (Simulation time: 7 hr 22 min 9 sec) 
 Total Blocks : 262144 Invalid Blocks : 17
Heartbeat CPU 5 instructions: 270000002 cycles: 137680146 heartbeat IPC: 1.23843 cumulative IPC: 1.24009 (Simulation time: 7 hr 22 min 9 sec) 
 Total Blocks : 262144 Invalid Blocks : 17
Heartbeat CPU 7 instructions: 270000002 cycles: 137680197 heartbeat IPC: 1.23842 cumulative IPC: 1.24007 (Simulation time: 7 hr 22 min 9 sec) 
 Total Blocks : 262144 Invalid Blocks : 17
Heartbeat CPU 4 instructions: 270000002 cycles: 137680248 heartbeat IPC: 1.23836 cumulative IPC: 1.24009 (Simulation time: 7 hr 22 min 9 sec) 
 Total Blocks : 262144 Invalid Blocks : 17
Heartbeat CPU 3 instructions: 270000002 cycles: 137680299 heartbeat IPC: 1.2384 cumulative IPC: 1.24011 (Simulation time: 7 hr 22 min 9 sec) 
 Total Blocks : 262144 Invalid Blocks : 17
Heartbeat CPU 6 instructions: 270000002 cycles: 137680508 heartbeat IPC: 1.23836 cumulative IPC: 1.24007 (Simulation time: 7 hr 22 min 9 sec) 
 Total Blocks : 262144 Invalid Blocks : 17
Heartbeat CPU 5 instructions: 280000003 cycles: 145758287 heartbeat IPC: 1.23791 cumulative IPC: 1.23982 (Simulation time: 7 hr 39 min 9 sec) 
 Total Blocks : 262144 Invalid Blocks : 17
Heartbeat CPU 1 instructions: 280000003 cycles: 145758312 heartbeat IPC: 1.2379 cumulative IPC: 1.2398 (Simulation time: 7 hr 39 min 9 sec) 
 Total Blocks : 262144 Invalid Blocks : 17
Heartbeat CPU 4 instructions: 280000003 cycles: 145758542 heartbeat IPC: 1.23789 cumulative IPC: 1.23981 (Simulation time: 7 hr 39 min 9 sec) 
 Total Blocks : 262144 Invalid Blocks : 17
Heartbeat CPU 7 instructions: 280000003 cycles: 145758646 heartbeat IPC: 1.23786 cumulative IPC: 1.23979 (Simulation time: 7 hr 39 min 9 sec) 
 Total Blocks : 262144 Invalid Blocks : 17
Heartbeat CPU 2 instructions: 280000003 cycles: 145758667 heartbeat IPC: 1.23783 cumulative IPC: 1.2398 (Simulation time: 7 hr 39 min 9 sec) 
 Total Blocks : 262144 Invalid Blocks : 17
Heartbeat CPU 6 instructions: 280000003 cycles: 145758718 heartbeat IPC: 1.2379 cumulative IPC: 1.2398 (Simulation time: 7 hr 39 min 9 sec) 
 Total Blocks : 262144 Invalid Blocks : 17
Heartbeat CPU 3 instructions: 280000003 cycles: 145758768 heartbeat IPC: 1.23786 cumulative IPC: 1.23982 (Simulation time: 7 hr 39 min 9 sec) 
 Total Blocks : 262144 Invalid Blocks : 17
Heartbeat CPU 0 instructions: 280000003 cycles: 145758819 heartbeat IPC: 1.23778 cumulative IPC: 1.23981 (Simulation time: 7 hr 39 min 9 sec) 
 Total Blocks : 262144 Invalid Blocks : 17
Heartbeat CPU 5 instructions: 290000000 cycles: 153825032 heartbeat IPC: 1.23966 cumulative IPC: 1.2398 (Simulation time: 7 hr 56 min 12 sec) 
 Total Blocks : 262144 Invalid Blocks : 17
Heartbeat CPU 0 instructions: 290000000 cycles: 153825083 heartbeat IPC: 1.23973 cumulative IPC: 1.23981 (Simulation time: 7 hr 56 min 12 sec) 
 Total Blocks : 262144 Invalid Blocks : 17
Heartbeat CPU 3 instructions: 290000000 cycles: 153825134 heartbeat IPC: 1.23972 cumulative IPC: 1.23981 (Simulation time: 7 hr 56 min 12 sec) 
 Total Blocks : 262144 Invalid Blocks : 17
Heartbeat CPU 4 instructions: 290000000 cycles: 153825185 heartbeat IPC: 1.23967 cumulative IPC: 1.2398 (Simulation time: 7 hr 56 min 12 sec) 
 Total Blocks : 262144 Invalid Blocks : 17
Heartbeat CPU 7 instructions: 290000000 cycles: 153825236 heartbeat IPC: 1.23968 cumulative IPC: 1.23978 (Simulation time: 7 hr 56 min 12 sec) 
 Total Blocks : 262144 Invalid Blocks : 17
Heartbeat CPU 1 instructions: 290000000 cycles: 153825287 heartbeat IPC: 1.23962 cumulative IPC: 1.23978 (Simulation time: 7 hr 56 min 12 sec) 
 Total Blocks : 262144 Invalid Blocks : 17
Heartbeat CPU 2 instructions: 290000000 cycles: 153825336 heartbeat IPC: 1.23967 cumulative IPC: 1.23978 (Simulation time: 7 hr 56 min 12 sec) 
 Total Blocks : 262144 Invalid Blocks : 17
Heartbeat CPU 6 instructions: 290000000 cycles: 153825600 heartbeat IPC: 1.23964 cumulative IPC: 1.23978 (Simulation time: 7 hr 56 min 12 sec) 
 Total Blocks : 262144 Invalid Blocks : 17
Heartbeat CPU 5 instructions: 300000003 cycles: 161886861 heartbeat IPC: 1.24041 cumulative IPC: 1.23986 (Simulation time: 8 hr 13 min 14 sec) 
 Total Blocks : 262144 Invalid Blocks : 17
Heartbeat CPU 3 instructions: 300000003 cycles: 161886954 heartbeat IPC: 1.24042 cumulative IPC: 1.23987 (Simulation time: 8 hr 13 min 14 sec) 
 Total Blocks : 262144 Invalid Blocks : 17
Heartbeat CPU 1 instructions: 300000003 cycles: 161887005 heartbeat IPC: 1.24043 cumulative IPC: 1.23985 (Simulation time: 8 hr 13 min 14 sec) 
 Total Blocks : 262144 Invalid Blocks : 17
Heartbeat CPU 7 instructions: 300000003 cycles: 161887156 heartbeat IPC: 1.2404 cumulative IPC: 1.23984 (Simulation time: 8 hr 13 min 14 sec) 
 Total Blocks : 262144 Invalid Blocks : 17
Heartbeat CPU 2 instructions: 300000003 cycles: 161887232 heartbeat IPC: 1.2404 cumulative IPC: 1.23984 (Simulation time: 8 hr 13 min 14 sec) 
 Total Blocks : 262144 Invalid Blocks : 17
Heartbeat CPU 6 instructions: 300000003 cycles: 161887574 heartbeat IPC: 1.24039 cumulative IPC: 1.23984 (Simulation time: 8 hr 13 min 14 sec) 
 Total Blocks : 262144 Invalid Blocks : 17
Heartbeat CPU 4 instructions: 300000003 cycles: 161887880 heartbeat IPC: 1.24028 cumulative IPC: 1.23984 (Simulation time: 8 hr 13 min 14 sec) 
 Total Blocks : 262144 Invalid Blocks : 17
Heartbeat CPU 0 instructions: 300000003 cycles: 161887931 heartbeat IPC: 1.24026 cumulative IPC: 1.23985 (Simulation time: 8 hr 13 min 14 sec) 
 Total Blocks : 262144 Invalid Blocks : 17
Heartbeat CPU 6 instructions: 310000002 cycles: 169912564 heartbeat IPC: 1.24611 cumulative IPC: 1.24041 (Simulation time: 8 hr 30 min 34 sec) 
 Total Blocks : 262144 Invalid Blocks : 17
Heartbeat CPU 2 instructions: 310000002 cycles: 169912615 heartbeat IPC: 1.24605 cumulative IPC: 1.24041 (Simulation time: 8 hr 30 min 34 sec) 
 Total Blocks : 262144 Invalid Blocks : 17
Heartbeat CPU 4 instructions: 310000002 cycles: 169912666 heartbeat IPC: 1.24614 cumulative IPC: 1.24041 (Simulation time: 8 hr 30 min 34 sec) 
 Total Blocks : 262144 Invalid Blocks : 17
Heartbeat CPU 1 instructions: 310000002 cycles: 169912717 heartbeat IPC: 1.246 cumulative IPC: 1.2404 (Simulation time: 8 hr 30 min 34 sec) 
 Total Blocks : 262144 Invalid Blocks : 17
Heartbeat CPU 0 instructions: 310000002 cycles: 169912768 heartbeat IPC: 1.24613 cumulative IPC: 1.24042 (Simulation time: 8 hr 30 min 34 sec) 
 Total Blocks : 262144 Invalid Blocks : 17
Heartbeat CPU 7 instructions: 310000002 cycles: 169912819 heartbeat IPC: 1.246 cumulative IPC: 1.2404 (Simulation time: 8 hr 30 min 34 sec) 
 Total Blocks : 262144 Invalid Blocks : 17
Heartbeat CPU 3 instructions: 310000002 cycles: 169912870 heartbeat IPC: 1.24596 cumulative IPC: 1.24042 (Simulation time: 8 hr 30 min 34 sec) 
 Total Blocks : 262144 Invalid Blocks : 17
Heartbeat CPU 5 instructions: 310000002 cycles: 169913571 heartbeat IPC: 1.24584 cumulative IPC: 1.2404 (Simulation time: 8 hr 30 min 34 sec) 
 Total Blocks : 262144 Invalid Blocks : 17
Heartbeat CPU 7 instructions: 320000000 cycles: 177933983 heartbeat IPC: 1.2467 cumulative IPC: 1.24092 (Simulation time: 8 hr 47 min 49 sec) 
 Total Blocks : 262144 Invalid Blocks : 16
Heartbeat CPU 1 instructions: 320000000 cycles: 177934069 heartbeat IPC: 1.24667 cumulative IPC: 1.24092 (Simulation time: 8 hr 47 min 49 sec) 
 Total Blocks : 262144 Invalid Blocks : 16
Heartbeat CPU 4 instructions: 320000000 cycles: 177934579 heartbeat IPC: 1.24659 cumulative IPC: 1.24093 (Simulation time: 8 hr 47 min 49 sec) 
 Total Blocks : 262144 Invalid Blocks : 16
Heartbeat CPU 5 instructions: 320000000 cycles: 177934604 heartbeat IPC: 1.24672 cumulative IPC: 1.24093 (Simulation time: 8 hr 47 min 49 sec) 
 Total Blocks : 262144 Invalid Blocks : 16
Heartbeat CPU 0 instructions: 320000000 cycles: 177934696 heartbeat IPC: 1.24658 cumulative IPC: 1.24093 (Simulation time: 8 hr 47 min 49 sec) 
 Total Blocks : 262144 Invalid Blocks : 16
Heartbeat CPU 6 instructions: 320000000 cycles: 177934755 heartbeat IPC: 1.24654 cumulative IPC: 1.24092 (Simulation time: 8 hr 47 min 49 sec) 
 Total Blocks : 262144 Invalid Blocks : 16
Heartbeat CPU 3 instructions: 320000000 cycles: 177934906 heartbeat IPC: 1.24657 cumulative IPC: 1.24093 (Simulation time: 8 hr 47 min 49 sec) 
 Total Blocks : 262144 Invalid Blocks : 16
Heartbeat CPU 2 instructions: 320000000 cycles: 177935433 heartbeat IPC: 1.24644 cumulative IPC: 1.24091 (Simulation time: 8 hr 47 min 49 sec) 
 Total Blocks : 262144 Invalid Blocks : 16
Heartbeat CPU 3 instructions: 330000000 cycles: 185957574 heartbeat IPC: 1.24647 cumulative IPC: 1.24136 (Simulation time: 9 hr 5 min 18 sec) 
 Total Blocks : 262144 Invalid Blocks : 16
Heartbeat CPU 4 instructions: 330000000 cycles: 185957625 heartbeat IPC: 1.24641 cumulative IPC: 1.24135 (Simulation time: 9 hr 5 min 18 sec) 
 Total Blocks : 262144 Invalid Blocks : 16
Heartbeat CPU 5 instructions: 330000000 cycles: 185957676 heartbeat IPC: 1.24641 cumulative IPC: 1.24135 (Simulation time: 9 hr 5 min 18 sec) 
 Total Blocks : 262144 Invalid Blocks : 16
Heartbeat CPU 2 instructions: 330000000 cycles: 185957727 heartbeat IPC: 1.24653 cumulative IPC: 1.24134 (Simulation time: 9 hr 5 min 18 sec) 
 Total Blocks : 262144 Invalid Blocks : 16
Heartbeat CPU 7 instructions: 330000000 cycles: 185957778 heartbeat IPC: 1.24629 cumulative IPC: 1.24133 (Simulation time: 9 hr 5 min 18 sec) 
 Total Blocks : 262144 Invalid Blocks : 16
Heartbeat CPU 6 instructions: 330000000 cycles: 185957829 heartbeat IPC: 1.24641 cumulative IPC: 1.24134 (Simulation time: 9 hr 5 min 18 sec) 
 Total Blocks : 262144 Invalid Blocks : 16
Heartbeat CPU 1 instructions: 330000000 cycles: 185957880 heartbeat IPC: 1.24629 cumulative IPC: 1.24134 (Simulation time: 9 hr 5 min 18 sec) 
 Total Blocks : 262144 Invalid Blocks : 16
Heartbeat CPU 0 instructions: 330000000 cycles: 185957931 heartbeat IPC: 1.24638 cumulative IPC: 1.24135 (Simulation time: 9 hr 5 min 18 sec) 
 Total Blocks : 262144 Invalid Blocks : 16
Heartbeat CPU 2 instructions: 340000000 cycles: 193990703 heartbeat IPC: 1.24487 cumulative IPC: 1.24159 (Simulation time: 9 hr 22 min 19 sec) 
 Total Blocks : 262144 Invalid Blocks : 15
Heartbeat CPU 0 instructions: 340000000 cycles: 193990754 heartbeat IPC: 1.24489 cumulative IPC: 1.2416 (Simulation time: 9 hr 22 min 19 sec) 
 Total Blocks : 262144 Invalid Blocks : 15
Heartbeat CPU 6 instructions: 340000000 cycles: 193990812 heartbeat IPC: 1.24487 cumulative IPC: 1.24159 (Simulation time: 9 hr 22 min 19 sec) 
 Total Blocks : 262144 Invalid Blocks : 15
Heartbeat CPU 1 instructions: 340000000 cycles: 193990863 heartbeat IPC: 1.24487 cumulative IPC: 1.24159 (Simulation time: 9 hr 22 min 19 sec) 
 Total Blocks : 262144 Invalid Blocks : 15
Heartbeat CPU 4 instructions: 340000000 cycles: 193990965 heartbeat IPC: 1.24481 cumulative IPC: 1.24159 (Simulation time: 9 hr 22 min 19 sec) 
 Total Blocks : 262144 Invalid Blocks : 15
Heartbeat CPU 5 instructions: 340000000 cycles: 193991205 heartbeat IPC: 1.24478 cumulative IPC: 1.24159 (Simulation time: 9 hr 22 min 19 sec) 
 Total Blocks : 262144 Invalid Blocks : 15
Heartbeat CPU 3 instructions: 340000000 cycles: 193991404 heartbeat IPC: 1.24474 cumulative IPC: 1.2416 (Simulation time: 9 hr 22 min 19 sec) 
 Total Blocks : 262144 Invalid Blocks : 15
Heartbeat CPU 7 instructions: 340000000 cycles: 193991419 heartbeat IPC: 1.24477 cumulative IPC: 1.24158 (Simulation time: 9 hr 22 min 19 sec) 
 Total Blocks : 262144 Invalid Blocks : 15
Heartbeat CPU 0 instructions: 350000002 cycles: 201454762 heartbeat IPC: 1.33976 cumulative IPC: 1.24769 (Simulation time: 9 hr 39 min 10 sec) 
 Total Blocks : 262144 Invalid Blocks : 14
Heartbeat CPU 1 instructions: 350000002 cycles: 201454864 heartbeat IPC: 1.33976 cumulative IPC: 1.24768 (Simulation time: 9 hr 39 min 10 sec) 
 Total Blocks : 262144 Invalid Blocks : 14
Heartbeat CPU 5 instructions: 350000002 cycles: 201455241 heartbeat IPC: 1.33976 cumulative IPC: 1.24769 (Simulation time: 9 hr 39 min 10 sec) 
 Total Blocks : 262144 Invalid Blocks : 14
Heartbeat CPU 2 instructions: 350000002 cycles: 201455610 heartbeat IPC: 1.3396 cumulative IPC: 1.24767 (Simulation time: 9 hr 39 min 10 sec) 
 Total Blocks : 262144 Invalid Blocks : 14
Heartbeat CPU 4 instructions: 350000002 cycles: 201455936 heartbeat IPC: 1.33959 cumulative IPC: 1.24768 (Simulation time: 9 hr 39 min 10 sec) 
 Total Blocks : 262144 Invalid Blocks : 14
Heartbeat CPU 3 instructions: 350000002 cycles: 201456038 heartbeat IPC: 1.33965 cumulative IPC: 1.24769 (Simulation time: 9 hr 39 min 10 sec) 
 Total Blocks : 262144 Invalid Blocks : 14
Heartbeat CPU 6 instructions: 350000002 cycles: 201456175 heartbeat IPC: 1.33952 cumulative IPC: 1.24767 (Simulation time: 9 hr 39 min 10 sec) 
 Total Blocks : 262144 Invalid Blocks : 14
Heartbeat CPU 7 instructions: 350000002 cycles: 201456518 heartbeat IPC: 1.33957 cumulative IPC: 1.24766 (Simulation time: 9 hr 39 min 10 sec) 
 Total Blocks : 262144 Invalid Blocks : 14
Heartbeat CPU 1 instructions: 360000000 cycles: 208700714 heartbeat IPC: 1.3801 cumulative IPC: 1.25521 (Simulation time: 9 hr 56 min 31 sec) 
 Total Blocks : 262144 Invalid Blocks : 14
Heartbeat CPU 2 instructions: 360000000 cycles: 208700761 heartbeat IPC: 1.38023 cumulative IPC: 1.25521 (Simulation time: 9 hr 56 min 31 sec) 
 Total Blocks : 262144 Invalid Blocks : 14
Heartbeat CPU 4 instructions: 360000000 cycles: 208701128 heartbeat IPC: 1.38023 cumulative IPC: 1.25521 (Simulation time: 9 hr 56 min 31 sec) 
 Total Blocks : 262144 Invalid Blocks : 14
Heartbeat CPU 0 instructions: 360000000 cycles: 208701278 heartbeat IPC: 1.37997 cumulative IPC: 1.25521 (Simulation time: 9 hr 56 min 31 sec) 
 Total Blocks : 262144 Invalid Blocks : 14
Heartbeat CPU 5 instructions: 360000000 cycles: 208701586 heartbeat IPC: 1.38001 cumulative IPC: 1.25521 (Simulation time: 9 hr 56 min 31 sec) 
 Total Blocks : 262144 Invalid Blocks : 14
Heartbeat CPU 3 instructions: 360000000 cycles: 208702090 heartbeat IPC: 1.38006 cumulative IPC: 1.25521 (Simulation time: 9 hr 56 min 31 sec) 
 Total Blocks : 262144 Invalid Blocks : 14
Heartbeat CPU 6 instructions: 360000000 cycles: 208702147 heartbeat IPC: 1.38008 cumulative IPC: 1.2552 (Simulation time: 9 hr 56 min 31 sec) 
 Total Blocks : 262144 Invalid Blocks : 14
Heartbeat CPU 7 instructions: 360000000 cycles: 208702707 heartbeat IPC: 1.38004 cumulative IPC: 1.25519 (Simulation time: 9 hr 56 min 31 sec) 
 Total Blocks : 262144 Invalid Blocks : 14
Heartbeat CPU 2 instructions: 370000000 cycles: 215943910 heartbeat IPC: 1.38061 cumulative IPC: 1.26195 (Simulation time: 10 hr 13 min 55 sec) 
 Total Blocks : 262144 Invalid Blocks : 14
Heartbeat CPU 1 instructions: 370000000 cycles: 215943998 heartbeat IPC: 1.38059 cumulative IPC: 1.26195 (Simulation time: 10 hr 13 min 55 sec) 
 Total Blocks : 262144 Invalid Blocks : 14
Heartbeat CPU 3 instructions: 370000000 cycles: 215944345 heartbeat IPC: 1.38079 cumulative IPC: 1.26196 (Simulation time: 10 hr 13 min 55 sec) 
 Total Blocks : 262144 Invalid Blocks : 14
Heartbeat CPU 0 instructions: 370000000 cycles: 215944747 heartbeat IPC: 1.38055 cumulative IPC: 1.26195 (Simulation time: 10 hr 13 min 55 sec) 
 Total Blocks : 262144 Invalid Blocks : 14
Heartbeat CPU 5 instructions: 370000000 cycles: 215944953 heartbeat IPC: 1.38057 cumulative IPC: 1.26195 (Simulation time: 10 hr 13 min 55 sec) 
 Total Blocks : 262144 Invalid Blocks : 14
Heartbeat CPU 4 instructions: 370000000 cycles: 215944992 heartbeat IPC: 1.38048 cumulative IPC: 1.26195 (Simulation time: 10 hr 13 min 55 sec) 
 Total Blocks : 262144 Invalid Blocks : 14
Heartbeat CPU 6 instructions: 370000000 cycles: 215945503 heartbeat IPC: 1.38058 cumulative IPC: 1.26194 (Simulation time: 10 hr 13 min 55 sec) 
 Total Blocks : 262144 Invalid Blocks : 14
Heartbeat CPU 7 instructions: 370000000 cycles: 215945623 heartbeat IPC: 1.38066 cumulative IPC: 1.26193 (Simulation time: 10 hr 13 min 55 sec) 
 Total Blocks : 262144 Invalid Blocks : 14
Heartbeat CPU 2 instructions: 380000002 cycles: 223184947 heartbeat IPC: 1.38102 cumulative IPC: 1.26803 (Simulation time: 10 hr 31 min 14 sec) 
 Total Blocks : 262144 Invalid Blocks : 14
Heartbeat CPU 0 instructions: 380000002 cycles: 223184973 heartbeat IPC: 1.38117 cumulative IPC: 1.26803 (Simulation time: 10 hr 31 min 14 sec) 
 Total Blocks : 262144 Invalid Blocks : 14
Heartbeat CPU 1 instructions: 380000002 cycles: 223185079 heartbeat IPC: 1.38101 cumulative IPC: 1.26802 (Simulation time: 10 hr 31 min 14 sec) 
 Total Blocks : 262144 Invalid Blocks : 14
Heartbeat CPU 5 instructions: 380000002 cycles: 223185313 heartbeat IPC: 1.38115 cumulative IPC: 1.26803 (Simulation time: 10 hr 31 min 14 sec) 
 Total Blocks : 262144 Invalid Blocks : 14
Heartbeat CPU 3 instructions: 380000002 cycles: 223185426 heartbeat IPC: 1.38101 cumulative IPC: 1.26803 (Simulation time: 10 hr 31 min 14 sec) 
 Total Blocks : 262144 Invalid Blocks : 14
Heartbeat CPU 4 instructions: 380000002 cycles: 223185857 heartbeat IPC: 1.38105 cumulative IPC: 1.26802 (Simulation time: 10 hr 31 min 14 sec) 
 Total Blocks : 262144 Invalid Blocks : 14
Heartbeat CPU 7 instructions: 380000002 cycles: 223186225 heartbeat IPC: 1.3811 cumulative IPC: 1.26801 (Simulation time: 10 hr 31 min 14 sec) 
 Total Blocks : 262144 Invalid Blocks : 14
Heartbeat CPU 6 instructions: 380000002 cycles: 223186369 heartbeat IPC: 1.38105 cumulative IPC: 1.26801 (Simulation time: 10 hr 31 min 14 sec) 
 Total Blocks : 262144 Invalid Blocks : 14
Heartbeat CPU 3 instructions: 390000003 cycles: 231449345 heartbeat IPC: 1.21008 cumulative IPC: 1.26485 (Simulation time: 10 hr 48 min 23 sec) 
 Total Blocks : 262144 Invalid Blocks : 14
Heartbeat CPU 1 instructions: 390000003 cycles: 231449396 heartbeat IPC: 1.21002 cumulative IPC: 1.26483 (Simulation time: 10 hr 48 min 24 sec) 
 Total Blocks : 262144 Invalid Blocks : 14
Heartbeat CPU 7 instructions: 390000003 cycles: 231449447 heartbeat IPC: 1.21018 cumulative IPC: 1.26483 (Simulation time: 10 hr 48 min 24 sec) 
 Total Blocks : 262144 Invalid Blocks : 14
Heartbeat CPU 2 instructions: 390000003 cycles: 231449498 heartbeat IPC: 1.20999 cumulative IPC: 1.26483 (Simulation time: 10 hr 48 min 24 sec) 
 Total Blocks : 262144 Invalid Blocks : 14
Heartbeat CPU 6 instructions: 390000003 cycles: 231449549 heartbeat IPC: 1.21019 cumulative IPC: 1.26483 (Simulation time: 10 hr 48 min 24 sec) 
 Total Blocks : 262144 Invalid Blocks : 14
Heartbeat CPU 4 instructions: 390000003 cycles: 231449600 heartbeat IPC: 1.21011 cumulative IPC: 1.26484 (Simulation time: 10 hr 48 min 24 sec) 
 Total Blocks : 262144 Invalid Blocks : 14
Heartbeat CPU 0 instructions: 390000003 cycles: 231449651 heartbeat IPC: 1.20997 cumulative IPC: 1.26484 (Simulation time: 10 hr 48 min 24 sec) 
 Total Blocks : 262144 Invalid Blocks : 14
Heartbeat CPU 5 instructions: 390000003 cycles: 231449702 heartbeat IPC: 1.21001 cumulative IPC: 1.26484 (Simulation time: 10 hr 48 min 24 sec) 
 Total Blocks : 262144 Invalid Blocks : 14
Heartbeat CPU 2 instructions: 400000000 cycles: 239837895 heartbeat IPC: 1.19212 cumulative IPC: 1.26099 (Simulation time: 11 hr 5 min 19 sec) 
 Total Blocks : 262144 Invalid Blocks : 14
Heartbeat CPU 3 instructions: 400000000 cycles: 239838046 heartbeat IPC: 1.19208 cumulative IPC: 1.261 (Simulation time: 11 hr 5 min 19 sec) 
 Total Blocks : 262144 Invalid Blocks : 14
Finished CPU 3 instructions: 200000003 cycles: 158604570 cumulative IPC: 1.261 (Simulation time: 11 hr 5 min 19 sec) 
Heartbeat CPU 4 instructions: 400000000 cycles: 239838097 heartbeat IPC: 1.19211 cumulative IPC: 1.26099 (Simulation time: 11 hr 5 min 19 sec) 
 Total Blocks : 262144 Invalid Blocks : 14
Heartbeat CPU 6 instructions: 400000000 cycles: 239838196 heartbeat IPC: 1.19209 cumulative IPC: 1.26098 (Simulation time: 11 hr 5 min 19 sec) 
 Total Blocks : 262144 Invalid Blocks : 14
Heartbeat CPU 5 instructions: 400000000 cycles: 239838247 heartbeat IPC: 1.1921 cumulative IPC: 1.26099 (Simulation time: 11 hr 5 min 19 sec) 
 Total Blocks : 262144 Invalid Blocks : 14
Heartbeat CPU 1 instructions: 400000000 cycles: 239838398 heartbeat IPC: 1.19204 cumulative IPC: 1.26098 (Simulation time: 11 hr 5 min 19 sec) 
 Total Blocks : 262144 Invalid Blocks : 14
Heartbeat CPU 7 instructions: 400000000 cycles: 239838449 heartbeat IPC: 1.19204 cumulative IPC: 1.26098 (Simulation time: 11 hr 5 min 19 sec) 
 Total Blocks : 262144 Invalid Blocks : 14
Finished CPU 4 instructions: 200000000 cycles: 158605601 cumulative IPC: 1.26099 (Simulation time: 11 hr 5 min 19 sec) 
Finished CPU 5 instructions: 200000002 cycles: 158605616 cumulative IPC: 1.26099 (Simulation time: 11 hr 5 min 19 sec) 
Heartbeat CPU 0 instructions: 400000000 cycles: 239839200 heartbeat IPC: 1.19196 cumulative IPC: 1.26099 (Simulation time: 11 hr 5 min 19 sec) 
 Total Blocks : 262144 Invalid Blocks : 14
Finished CPU 2 instructions: 200000000 cycles: 158606155 cumulative IPC: 1.26099 (Simulation time: 11 hr 5 min 19 sec) 
Finished CPU 0 instructions: 200000001 cycles: 158606425 cumulative IPC: 1.26098 (Simulation time: 11 hr 5 min 19 sec) 
Finished CPU 6 instructions: 200000000 cycles: 158606450 cumulative IPC: 1.26098 (Simulation time: 11 hr 5 min 19 sec) 
Finished CPU 1 instructions: 200000002 cycles: 158606558 cumulative IPC: 1.26098 (Simulation time: 11 hr 5 min 19 sec) 
Finished CPU 7 instructions: 200000000 cycles: 158607084 cumulative IPC: 1.26098 (Simulation time: 11 hr 5 min 19 sec) 

CPU 0 Branch Prediction Accuracy: 86.0119% MPKI: 3.73737 Average ROB Occupancy at Mispredict: 188.395

CPU 1 Branch Prediction Accuracy: 86.0118% MPKI: 3.73733 Average ROB Occupancy at Mispredict: 188.394

CPU 2 Branch Prediction Accuracy: 86.0118% MPKI: 3.73733 Average ROB Occupancy at Mispredict: 188.395

CPU 3 Branch Prediction Accuracy: 86.0119% MPKI: 3.73739 Average ROB Occupancy at Mispredict: 188.391

CPU 4 Branch Prediction Accuracy: 86.0119% MPKI: 3.73734 Average ROB Occupancy at Mispredict: 188.399

CPU 5 Branch Prediction Accuracy: 86.0119% MPKI: 3.73734 Average ROB Occupancy at Mispredict: 188.396

CPU 6 Branch Prediction Accuracy: 86.0118% MPKI: 3.73733 Average ROB Occupancy at Mispredict: 188.397

CPU 7 Branch Prediction Accuracy: 86.0119% MPKI: 3.73733 Average ROB Occupancy at Mispredict: 188.395

ChampSim completed all CPUs

Total Simulation Statistics (not including warmup)

CPU 0 cumulative IPC: 1.26098 instructions: 200000876 cycles: 158607083
ITLB TOTAL     ACCESS: 22279943  HIT: 22279943  MISS:     0  HIT %:   100  MISS %:     0  AVERAGE MISS PENALTY: 0
ITLB LOAD      ACCESS: 22279943  HIT: 22279943  MISS:     0  HIT %:   100  MISS %:     0  AVERAGE MISS PENALTY: 0
ITLB RFO       ACCESS:     0  HIT:     0  MISS:     0  HIT %:     0  MISS %:     0  AVERAGE MISS PENALTY: 0
ITLB PREFETCH  ACCESS:     0  HIT:     0  MISS:     0  HIT %:     0  MISS %:     0  AVERAGE MISS PENALTY: 0
ITLB WRITEBACK ACCESS:     0  HIT:     0  MISS:     0  HIT %:     0  MISS %:     0  AVERAGE MISS PENALTY: 0

DTLB TOTAL     ACCESS: 26800135  HIT: 26777181  MISS: 22954  HIT %: 99.9144  MISS %: 0.0856488  AVERAGE MISS PENALTY: 10.4546
DTLB LOAD      ACCESS: 19114887  HIT: 19097904  MISS: 16983  HIT %: 99.9112  MISS %: 0.088847  AVERAGE MISS PENALTY: 10.8364
DTLB RFO       ACCESS: 7685248  HIT: 7679277  MISS:  5971  HIT %: 99.9223  MISS %: 0.0776943  AVERAGE MISS PENALTY: 9.36895
DTLB PREFETCH  ACCESS:     0  HIT:     0  MISS:     0  HIT %:     0  MISS %:     0  AVERAGE MISS PENALTY: 0
DTLB WRITEBACK ACCESS:     0  HIT:     0  MISS:     0  HIT %:     0  MISS %:     0  AVERAGE MISS PENALTY: 0

STLB TOTAL     ACCESS: 22954  HIT: 22630  MISS:   324  HIT %: 98.5885  MISS %: 1.41152  AVERAGE MISS PENALTY: 100
STLB LOAD      ACCESS: 16983  HIT: 16681  MISS:   302  HIT %: 98.2218  MISS %: 1.77825  AVERAGE MISS PENALTY: 100
STLB RFO       ACCESS:  5971  HIT:  5949  MISS:    22  HIT %: 99.6316  MISS %: 0.368447  AVERAGE MISS PENALTY: 100
STLB PREFETCH  ACCESS:     0  HIT:     0  MISS:     0  HIT %:     0  MISS %:     0  AVERAGE MISS PENALTY: 0
STLB WRITEBACK ACCESS:     0  HIT:     0  MISS:     0  HIT %:     0  MISS %:     0  AVERAGE MISS PENALTY: 0

L1D TOTAL     ACCESS: 41227086  HIT: 41165574  MISS: 61512  HIT %: 99.8508  MISS %: 0.149203  AVERAGE MISS PENALTY: 1.00841e+07
L1D LOAD      ACCESS: 15257766  HIT: 15243435  MISS: 14331  HIT %: 99.9061  MISS %: 0.0939259  AVERAGE MISS PENALTY: 4.32832e+07
L1D RFO       ACCESS: 15190712  HIT: 15189304  MISS:  1408  HIT %: 99.9907  MISS %: 0.00926882  AVERAGE MISS PENALTY: 172.553
L1D PREFETCH  ACCESS: 10778608  HIT: 10732835  MISS: 45773  HIT %: 99.5753  MISS %: 0.424665  AVERAGE MISS PENALTY: 73.8812
L1D WRITEBACK ACCESS:     0  HIT:     0  MISS:     0  HIT %:     0  MISS %:     0  AVERAGE MISS PENALTY: 0

L1I TOTAL     ACCESS: 30606850  HIT: 30606849  MISS:     1  HIT %:   100  MISS %: 3.26724e-06  AVERAGE MISS PENALTY: 232
L1I LOAD      ACCESS: 30606850  HIT: 30606849  MISS:     1  HIT %:   100  MISS %: 3.26724e-06  AVERAGE MISS PENALTY: 232
L1I RFO       ACCESS:     0  HIT:     0  MISS:     0  HIT %:     0  MISS %:     0  AVERAGE MISS PENALTY: 0
L1I PREFETCH  ACCESS:     0  HIT:     0  MISS:     0  HIT %:     0  MISS %:     0  AVERAGE MISS PENALTY: 0
L1I WRITEBACK ACCESS:     0  HIT:     0  MISS:     0  HIT %:     0  MISS %:     0  AVERAGE MISS PENALTY: 0

L2C TOTAL     ACCESS: 98703  HIT: 56965  MISS: 41738  HIT %: 57.7135  MISS %: 42.2865  AVERAGE MISS PENALTY: 1.19813e+07
L2C LOAD      ACCESS: 13995  HIT:  3619  MISS: 10376  HIT %: 25.8592  MISS %: 74.1408  AVERAGE MISS PENALTY: 4.81949e+07
L2C RFO       ACCESS:  1408  HIT:   137  MISS:  1271  HIT %: 9.73011  MISS %: 90.2699  AVERAGE MISS PENALTY: 174.536
L2C PREFETCH  ACCESS: 81613  HIT: 51566  MISS: 30047  HIT %: 63.1836  MISS %: 36.8164  AVERAGE MISS PENALTY: 141.716
L2C WRITEBACK ACCESS:  1687  HIT:  1643  MISS:    44  HIT %: 97.3918  MISS %: 2.60818  AVERAGE MISS PENALTY: 0


LLC0 TOTAL     ACCESS:  5403  HIT:  1841  MISS:  3562  HIT %: 34.0737  MISS %: 65.9263  AVERAGE MISS PENALTY: 157.419
LLC0 LOAD      ACCESS:  1191  HIT:   362  MISS:   829  HIT %: 30.3946  MISS %: 69.6054  AVERAGE MISS PENALTY: 165.229
LLC0 RFO       ACCESS:   151  HIT:     1  MISS:   150  HIT %: 0.662252  MISS %: 99.3377  AVERAGE MISS PENALTY: 146.24
LLC0 PREFETCH  ACCESS:  3879  HIT:  1330  MISS:  2549  HIT %: 34.2872  MISS %: 65.7128  AVERAGE MISS PENALTY: 157.636
LLC0 WRITEBACK ACCESS:   182  HIT:   148  MISS:    34  HIT %: 81.3187  MISS %: 18.6813  AVERAGE MISS PENALTY: 0

LLC1 TOTAL     ACCESS:  5386  HIT:  1771  MISS:  3615  HIT %: 32.8815  MISS %: 67.1185  AVERAGE MISS PENALTY: 157.778
LLC1 LOAD      ACCESS:  1078  HIT:   311  MISS:   767  HIT %: 28.8497  MISS %: 71.1503  AVERAGE MISS PENALTY: 159.222
LLC1 RFO       ACCESS:   160  HIT:     9  MISS:   151  HIT %: 5.625  MISS %: 94.375  AVERAGE MISS PENALTY: 133.099
LLC1 PREFETCH  ACCESS:  3968  HIT:  1317  MISS:  2651  HIT %: 33.1905  MISS %: 66.8095  AVERAGE MISS PENALTY: 161.504
LLC1 WRITEBACK ACCESS:   180  HIT:   134  MISS:    46  HIT %: 74.4444  MISS %: 25.5556  AVERAGE MISS PENALTY: 0

LLC2 TOTAL     ACCESS:  5381  HIT:  1783  MISS:  3598  HIT %: 33.1351  MISS %: 66.8649  AVERAGE MISS PENALTY: 159.543
LLC2 LOAD      ACCESS:  1148  HIT:   369  MISS:   779  HIT %: 32.1429  MISS %: 67.8571  AVERAGE MISS PENALTY: 159.483
LLC2 RFO       ACCESS:   162  HIT:     6  MISS:   156  HIT %: 3.7037  MISS %: 96.2963  AVERAGE MISS PENALTY: 146.026
LLC2 PREFETCH  ACCESS:  3890  HIT:  1270  MISS:  2620  HIT %: 32.6478  MISS %: 67.3522  AVERAGE MISS PENALTY: 162.984
LLC2 WRITEBACK ACCESS:   181  HIT:   138  MISS:    43  HIT %: 76.2431  MISS %: 23.7569  AVERAGE MISS PENALTY: 0

LLC3 TOTAL     ACCESS:  5387  HIT:  1802  MISS:  3585  HIT %: 33.4509  MISS %: 66.5491  AVERAGE MISS PENALTY: 157.064
LLC3 LOAD      ACCESS:   878  HIT:   247  MISS:   631  HIT %: 28.1321  MISS %: 71.8679  AVERAGE MISS PENALTY: 162.507
LLC3 RFO       ACCESS:   152  HIT:     3  MISS:   149  HIT %: 1.97368  MISS %: 98.0263  AVERAGE MISS PENALTY: 139.691
LLC3 PREFETCH  ACCESS:  4176  HIT:  1395  MISS:  2781  HIT %: 33.4052  MISS %: 66.5948  AVERAGE MISS PENALTY: 158.115
LLC3 WRITEBACK ACCESS:   181  HIT:   157  MISS:    24  HIT %: 86.7403  MISS %: 13.2597  AVERAGE MISS PENALTY: 0

LLC4 TOTAL     ACCESS:  5391  HIT:  1809  MISS:  3582  HIT %: 33.5559  MISS %: 66.4441  AVERAGE MISS PENALTY: 159.783
LLC4 LOAD      ACCESS:   760  HIT:   232  MISS:   528  HIT %: 30.5263  MISS %: 69.4737  AVERAGE MISS PENALTY: 155.973
LLC4 RFO       ACCESS:   158  HIT:     5  MISS:   153  HIT %: 3.16456  MISS %: 96.8354  AVERAGE MISS PENALTY: 141.745
LLC4 PREFETCH  ACCESS:  4295  HIT:  1430  MISS:  2865  HIT %: 33.2945  MISS %: 66.7055  AVERAGE MISS PENALTY: 163.456
LLC4 WRITEBACK ACCESS:   178  HIT:   142  MISS:    36  HIT %: 79.7753  MISS %: 20.2247  AVERAGE MISS PENALTY: 0

LLC5 TOTAL     ACCESS:  5407  HIT:  1761  MISS:  3646  HIT %: 32.5689  MISS %: 67.4311  AVERAGE MISS PENALTY: 162.159
LLC5 LOAD      ACCESS:   941  HIT:   290  MISS:   651  HIT %: 30.8183  MISS %: 69.1817  AVERAGE MISS PENALTY: 176.567
LLC5 RFO       ACCESS:   161  HIT:     3  MISS:   158  HIT %: 1.86335  MISS %: 98.1366  AVERAGE MISS PENALTY: 135.158
LLC5 PREFETCH  ACCESS:  4120  HIT:  1337  MISS:  2783  HIT %: 32.4515  MISS %: 67.5485  AVERAGE MISS PENALTY: 163.468
LLC5 WRITEBACK ACCESS:   185  HIT:   131  MISS:    54  HIT %: 70.8108  MISS %: 29.1892  AVERAGE MISS PENALTY: 0

LLC6 TOTAL     ACCESS:  5385  HIT:  1755  MISS:  3630  HIT %: 32.5905  MISS %: 67.4095  AVERAGE MISS PENALTY: 161.451
LLC6 LOAD      ACCESS:   931  HIT:   294  MISS:   637  HIT %: 31.5789  MISS %: 68.4211  AVERAGE MISS PENALTY: 160.914
LLC6 RFO       ACCESS:   164  HIT:     9  MISS:   155  HIT %: 5.4878  MISS %: 94.5122  AVERAGE MISS PENALTY: 140.342
LLC6 PREFETCH  ACCESS:  4109  HIT:  1308  MISS:  2801  HIT %: 31.8326  MISS %: 68.1674  AVERAGE MISS PENALTY: 164.874
LLC6 WRITEBACK ACCESS:   181  HIT:   144  MISS:    37  HIT %: 79.558  MISS %: 20.442  AVERAGE MISS PENALTY: 0

LLC7 TOTAL     ACCESS:  5402  HIT:  1795  MISS:  3607  HIT %: 33.2284  MISS %: 66.7716  AVERAGE MISS PENALTY: 161.825
LLC7 LOAD      ACCESS:  1107  HIT:   372  MISS:   735  HIT %: 33.6043  MISS %: 66.3957  AVERAGE MISS PENALTY: 156.691
LLC7 RFO       ACCESS:   163  HIT:     4  MISS:   159  HIT %: 2.45399  MISS %: 97.546  AVERAGE MISS PENALTY: 144.799
LLC7 PREFETCH  ACCESS:  3952  HIT:  1276  MISS:  2676  HIT %: 32.2874  MISS %: 67.7126  AVERAGE MISS PENALTY: 166.484
LLC7 WRITEBACK ACCESS:   180  HIT:   143  MISS:    37  HIT %: 79.4444  MISS %: 20.5556  AVERAGE MISS PENALTY: 0

Total Rob stall cycles : 	111525385
Total Load Rob Stall cycles : 	20162019
Average Rob Stall cycles : 	 4
Average Load Rob Stall cycles : 	 5

CPU 1 cumulative IPC: 1.26098 instructions: 200000522 cycles: 158607083
ITLB TOTAL     ACCESS: 22280184  HIT: 22280184  MISS:     0  HIT %:   100  MISS %:     0  AVERAGE MISS PENALTY: 0
ITLB LOAD      ACCESS: 22280184  HIT: 22280184  MISS:     0  HIT %:   100  MISS %:     0  AVERAGE MISS PENALTY: 0
ITLB RFO       ACCESS:     0  HIT:     0  MISS:     0  HIT %:     0  MISS %:     0  AVERAGE MISS PENALTY: 0
ITLB PREFETCH  ACCESS:     0  HIT:     0  MISS:     0  HIT %:     0  MISS %:     0  AVERAGE MISS PENALTY: 0
ITLB WRITEBACK ACCESS:     0  HIT:     0  MISS:     0  HIT %:     0  MISS %:     0  AVERAGE MISS PENALTY: 0

DTLB TOTAL     ACCESS: 26800012  HIT: 26777058  MISS: 22954  HIT %: 99.9144  MISS %: 0.0856492  AVERAGE MISS PENALTY: 10.4546
DTLB LOAD      ACCESS: 19114827  HIT: 19097844  MISS: 16983  HIT %: 99.9112  MISS %: 0.0888473  AVERAGE MISS PENALTY: 10.8364
DTLB RFO       ACCESS: 7685185  HIT: 7679214  MISS:  5971  HIT %: 99.9223  MISS %: 0.0776949  AVERAGE MISS PENALTY: 9.36895
DTLB PREFETCH  ACCESS:     0  HIT:     0  MISS:     0  HIT %:     0  MISS %:     0  AVERAGE MISS PENALTY: 0
DTLB WRITEBACK ACCESS:     0  HIT:     0  MISS:     0  HIT %:     0  MISS %:     0  AVERAGE MISS PENALTY: 0

STLB TOTAL     ACCESS: 22954  HIT: 22630  MISS:   324  HIT %: 98.5885  MISS %: 1.41152  AVERAGE MISS PENALTY: 100
STLB LOAD      ACCESS: 16983  HIT: 16681  MISS:   302  HIT %: 98.2218  MISS %: 1.77825  AVERAGE MISS PENALTY: 100
STLB RFO       ACCESS:  5971  HIT:  5949  MISS:    22  HIT %: 99.6316  MISS %: 0.368447  AVERAGE MISS PENALTY: 100
STLB PREFETCH  ACCESS:     0  HIT:     0  MISS:     0  HIT %:     0  MISS %:     0  AVERAGE MISS PENALTY: 0
STLB WRITEBACK ACCESS:     0  HIT:     0  MISS:     0  HIT %:     0  MISS %:     0  AVERAGE MISS PENALTY: 0

L1D TOTAL     ACCESS: 41227582  HIT: 41166038  MISS: 61544  HIT %: 99.8507  MISS %: 0.149279  AVERAGE MISS PENALTY: 1.00514e+07
L1D LOAD      ACCESS: 15257810  HIT: 15243482  MISS: 14328  HIT %: 99.9061  MISS %: 0.093906  AVERAGE MISS PENALTY: 4.31744e+07
L1D RFO       ACCESS: 15190683  HIT: 15189281  MISS:  1402  HIT %: 99.9908  MISS %: 0.00922934  AVERAGE MISS PENALTY: 178.626
L1D PREFETCH  ACCESS: 10779089  HIT: 10733275  MISS: 45814  HIT %: 99.575  MISS %: 0.425027  AVERAGE MISS PENALTY: 74.53
L1D WRITEBACK ACCESS:     0  HIT:     0  MISS:     0  HIT %:     0  MISS %:     0  AVERAGE MISS PENALTY: 0

L1I TOTAL     ACCESS: 30607051  HIT: 30607050  MISS:     1  HIT %:   100  MISS %: 3.26722e-06  AVERAGE MISS PENALTY: 49
L1I LOAD      ACCESS: 30607051  HIT: 30607050  MISS:     1  HIT %:   100  MISS %: 3.26722e-06  AVERAGE MISS PENALTY: 49
L1I RFO       ACCESS:     0  HIT:     0  MISS:     0  HIT %:     0  MISS %:     0  AVERAGE MISS PENALTY: 0
L1I PREFETCH  ACCESS:     0  HIT:     0  MISS:     0  HIT %:     0  MISS %:     0  AVERAGE MISS PENALTY: 0
L1I WRITEBACK ACCESS:     0  HIT:     0  MISS:     0  HIT %:     0  MISS %:     0  AVERAGE MISS PENALTY: 0

L2C TOTAL     ACCESS: 98676  HIT: 57109  MISS: 41567  HIT %: 57.8753  MISS %: 42.1247  AVERAGE MISS PENALTY: 1.1971e+07
L2C LOAD      ACCESS: 13990  HIT:  3669  MISS: 10321  HIT %: 26.2259  MISS %: 73.7741  AVERAGE MISS PENALTY: 4.82117e+07
L2C RFO       ACCESS:  1402  HIT:   132  MISS:  1270  HIT %: 9.41512  MISS %: 90.5849  AVERAGE MISS PENALTY: 180.632
L2C PREFETCH  ACCESS: 81597  HIT: 51666  MISS: 29931  HIT %: 63.3185  MISS %: 36.6815  AVERAGE MISS PENALTY: 143.544
L2C WRITEBACK ACCESS:  1687  HIT:  1642  MISS:    45  HIT %: 97.3325  MISS %: 2.66746  AVERAGE MISS PENALTY: 0


LLC0 TOTAL     ACCESS:  5381  HIT:  1783  MISS:  3598  HIT %: 33.1351  MISS %: 66.8649  AVERAGE MISS PENALTY: 158.767
LLC0 LOAD      ACCESS:  1193  HIT:   357  MISS:   836  HIT %: 29.9246  MISS %: 70.0754  AVERAGE MISS PENALTY: 167.059
LLC0 RFO       ACCESS:   151  HIT:     7  MISS:   144  HIT %: 4.63576  MISS %: 95.3642  AVERAGE MISS PENALTY: 144.375
LLC0 PREFETCH  ACCESS:  3855  HIT:  1270  MISS:  2585  HIT %: 32.9442  MISS %: 67.0558  AVERAGE MISS PENALTY: 158.914
LLC0 WRITEBACK ACCESS:   182  HIT:   149  MISS:    33  HIT %: 81.8681  MISS %: 18.1319  AVERAGE MISS PENALTY: 0

LLC1 TOTAL     ACCESS:  5361  HIT:  1776  MISS:  3585  HIT %: 33.1281  MISS %: 66.8719  AVERAGE MISS PENALTY: 158.96
LLC1 LOAD      ACCESS:  1059  HIT:   294  MISS:   765  HIT %: 27.762  MISS %: 72.238  AVERAGE MISS PENALTY: 158.031
LLC1 RFO       ACCESS:   160  HIT:     8  MISS:   152  HIT %:     5  MISS %:    95  AVERAGE MISS PENALTY: 143.612
LLC1 PREFETCH  ACCESS:  3962  HIT:  1322  MISS:  2640  HIT %: 33.367  MISS %: 66.633  AVERAGE MISS PENALTY: 161.799
LLC1 WRITEBACK ACCESS:   180  HIT:   152  MISS:    28  HIT %: 84.4444  MISS %: 15.5556  AVERAGE MISS PENALTY: 0

LLC2 TOTAL     ACCESS:  5369  HIT:  1818  MISS:  3551  HIT %: 33.8611  MISS %: 66.1389  AVERAGE MISS PENALTY: 166.895
LLC2 LOAD      ACCESS:  1137  HIT:   351  MISS:   786  HIT %: 30.8707  MISS %: 69.1293  AVERAGE MISS PENALTY: 175.207
LLC2 RFO       ACCESS:   161  HIT:     5  MISS:   156  HIT %: 3.10559  MISS %: 96.8944  AVERAGE MISS PENALTY: 151.865
LLC2 PREFETCH  ACCESS:  3888  HIT:  1307  MISS:  2581  HIT %: 33.6163  MISS %: 66.3837  AVERAGE MISS PENALTY: 167.083
LLC2 WRITEBACK ACCESS:   183  HIT:   155  MISS:    28  HIT %: 84.6995  MISS %: 15.3005  AVERAGE MISS PENALTY: 0

LLC3 TOTAL     ACCESS:  5373  HIT:  1762  MISS:  3611  HIT %: 32.7936  MISS %: 67.2064  AVERAGE MISS PENALTY: 163.842
LLC3 LOAD      ACCESS:   877  HIT:   263  MISS:   614  HIT %: 29.9886  MISS %: 70.0114  AVERAGE MISS PENALTY: 166.58
LLC3 RFO       ACCESS:   152  HIT:     7  MISS:   145  HIT %: 4.60526  MISS %: 95.3947  AVERAGE MISS PENALTY: 152.503
LLC3 PREFETCH  ACCESS:  4162  HIT:  1341  MISS:  2821  HIT %: 32.2201  MISS %: 67.7799  AVERAGE MISS PENALTY: 165.629
LLC3 WRITEBACK ACCESS:   182  HIT:   151  MISS:    31  HIT %: 82.967  MISS %: 17.033  AVERAGE MISS PENALTY: 0

LLC4 TOTAL     ACCESS:  5378  HIT:  1759  MISS:  3619  HIT %: 32.7073  MISS %: 67.2927  AVERAGE MISS PENALTY: 161.928
[...]
LLC1 PREFETCH  REQUESTED:     0  ISSUED:     0  USEFUL:  1543  USELESS: 17769
 USEFUL LOAD PREFETCHES:       1543 PREFETCH ISSUED TO LOWER LEVEL:      21277  ACCURACY: 7.25196
 TIMELY PREFETCHES:       1543 LATE PREFETCHES: 0 DROPPED PREFETCHES: 0
LLC1 AVERAGE MISS LATENCY: 158.792 cycles
LLC2 TOTAL     ACCESS:  5393  HIT:  1817  MISS:  3576  HIT %: 33.6918  MISS %: 66.3082  AVERAGE MISS PENALTY: 158.624
LLC2 LOAD      ACCESS:  1159  HIT:   375  MISS:   784  HIT %: 32.3555  MISS %: 67.6445  AVERAGE MISS PENALTY: 164.27
LLC2 RFO       ACCESS:   158  HIT:     3  MISS:   155  HIT %: 1.89873  MISS %: 98.1013  AVERAGE MISS PENALTY: 143.432
LLC2 PREFETCH  ACCESS:  3895  HIT:  1298  MISS:  2597  HIT %: 33.3248  MISS %: 66.6752  AVERAGE MISS PENALTY: 160.269
LLC2 WRITEBACK ACCESS:   181  HIT:   141  MISS:    40  HIT %: 77.9006  MISS %: 22.0994  AVERAGE MISS PENALTY: 0
LLC2 PREFETCH  REQUESTED:     0  ISSUED:     0  USEFUL:  1344  USELESS: 17638
 USEFUL LOAD PREFETCHES:       1344 PREFETCH ISSUED TO LOWER LEVEL:      23110  ACCURACY: 5.81566
 TIMELY PREFETCHES:       1344 LATE PREFETCHES: 0 DROPPED PREFETCHES: 0
LLC2 AVERAGE MISS LATENCY: 158.624 cycles
LLC3 TOTAL     ACCESS:  5400  HIT:  1830  MISS:  3570  HIT %: 33.8889  MISS %: 66.1111  AVERAGE MISS PENALTY: 158.971
LLC3 LOAD      ACCESS:   891  HIT:   258  MISS:   633  HIT %: 28.9562  MISS %: 71.0438  AVERAGE MISS PENALTY: 167.858
LLC3 RFO       ACCESS:   152  HIT:     4  MISS:   148  HIT %: 2.63158  MISS %: 97.3684  AVERAGE MISS PENALTY: 147.439
LLC3 PREFETCH  ACCESS:  4176  HIT:  1422  MISS:  2754  HIT %: 34.0517  MISS %: 65.9483  AVERAGE MISS PENALTY: 159.569
LLC3 WRITEBACK ACCESS:   181  HIT:   146  MISS:    35  HIT %: 80.663  MISS %: 19.337  AVERAGE MISS PENALTY: 0
LLC3 PREFETCH  REQUESTED:     0  ISSUED:     0  USEFUL:  1329  USELESS: 19025
 USEFUL LOAD PREFETCHES:       1329 PREFETCH ISSUED TO LOWER LEVEL:      22636  ACCURACY: 5.87118
 TIMELY PREFETCHES:       1329 LATE PREFETCHES: 0 DROPPED PREFETCHES: 0
LLC3 AVERAGE MISS LATENCY: 158.971 cycles
LLC4 TOTAL     ACCESS:  5404  HIT:  1778  MISS:  3626  HIT %: 32.9016  MISS %: 67.0984  AVERAGE MISS PENALTY: 159.906
LLC4 LOAD      ACCESS:   751  HIT:   226  MISS:   525  HIT %: 30.0932  MISS %: 69.9068  AVERAGE MISS PENALTY: 153.274
LLC4 RFO       ACCESS:   156  HIT:     1  MISS:   155  HIT %: 0.641026  MISS %: 99.359  AVERAGE MISS PENALTY: 143.187
LLC4 PREFETCH  ACCESS:  4316  HIT:  1400  MISS:  2916  HIT %: 32.4374  MISS %: 67.5626  AVERAGE MISS PENALTY: 163.633
LLC4 WRITEBACK ACCESS:   181  HIT:   151  MISS:    30  HIT %: 83.4254  MISS %: 16.5746  AVERAGE MISS PENALTY: 0
LLC4 PREFETCH  REQUESTED:     0  ISSUED:     0  USEFUL:  1504  USELESS: 19402
 USEFUL LOAD PREFETCHES:       1504 PREFETCH ISSUED TO LOWER LEVEL:      26913  ACCURACY: 5.58838
 TIMELY PREFETCHES:       1504 LATE PREFETCHES: 0 DROPPED PREFETCHES: 0
LLC4 AVERAGE MISS LATENCY: 159.906 cycles
LLC5 TOTAL     ACCESS:  5415  HIT:  1755  MISS:  3660  HIT %: 32.41  MISS %: 67.59  AVERAGE MISS PENALTY: 157.998
LLC5 LOAD      ACCESS:   943  HIT:   307  MISS:   636  HIT %: 32.5557  MISS %: 67.4443  AVERAGE MISS PENALTY: 167.313
LLC5 RFO       ACCESS:   160  HIT:     6  MISS:   154  HIT %:  3.75  MISS %: 96.25  AVERAGE MISS PENALTY: 143.493
LLC5 PREFETCH  ACCESS:  4128  HIT:  1295  MISS:  2833  HIT %: 31.3711  MISS %: 68.6289  AVERAGE MISS PENALTY: 158.759
LLC5 WRITEBACK ACCESS:   184  HIT:   147  MISS:    37  HIT %: 79.8913  MISS %: 20.1087  AVERAGE MISS PENALTY: 0
LLC5 PREFETCH  REQUESTED:     0  ISSUED:     0  USEFUL:  1562  USELESS: 19369
 USEFUL LOAD PREFETCHES:       1562 PREFETCH ISSUED TO LOWER LEVEL:      23195  ACCURACY: 6.73421
 TIMELY PREFETCHES:       1562 LATE PREFETCHES: 0 DROPPED PREFETCHES: 0
LLC5 AVERAGE MISS LATENCY: 157.998 cycles
LLC6 TOTAL     ACCESS:  5400  HIT:  1802  MISS:  3598  HIT %: 33.3704  MISS %: 66.6296  AVERAGE MISS PENALTY: 162.555
LLC6 LOAD      ACCESS:   935  HIT:   297  MISS:   638  HIT %: 31.7647  MISS %: 68.2353  AVERAGE MISS PENALTY: 167.397
LLC6 RFO       ACCESS:   162  HIT:     4  MISS:   158  HIT %: 2.46914  MISS %: 97.5309  AVERAGE MISS PENALTY: 136.468
LLC6 PREFETCH  ACCESS:  4120  HIT:  1351  MISS:  2769  HIT %: 32.7913  MISS %: 67.2087  AVERAGE MISS PENALTY: 164.865
LLC6 WRITEBACK ACCESS:   183  HIT:   150  MISS:    33  HIT %: 81.9672  MISS %: 18.0328  AVERAGE MISS PENALTY: 0
LLC6 PREFETCH  REQUESTED:     0  ISSUED:     0  USEFUL:  1444  USELESS: 18881
 USEFUL LOAD PREFETCHES:       1444 PREFETCH ISSUED TO LOWER LEVEL:      27572  ACCURACY: 5.2372
 TIMELY PREFETCHES:       1444 LATE PREFETCHES: 0 DROPPED PREFETCHES: 0
LLC6 AVERAGE MISS LATENCY: 162.555 cycles
LLC7 TOTAL     ACCESS:  5413  HIT:  1778  MISS:  3635  HIT %: 32.8469  MISS %: 67.1531  AVERAGE MISS PENALTY: 159.847
LLC7 LOAD      ACCESS:  1107  HIT:   347  MISS:   760  HIT %: 31.346  MISS %: 68.654  AVERAGE MISS PENALTY: 152.825
LLC7 RFO       ACCESS:   161  HIT:     3  MISS:   158  HIT %: 1.86335  MISS %: 98.1366  AVERAGE MISS PENALTY: 143.563
LLC7 PREFETCH  ACCESS:  3962  HIT:  1280  MISS:  2682  HIT %: 32.3069  MISS %: 67.6931  AVERAGE MISS PENALTY: 164.882
LLC7 WRITEBACK ACCESS:   183  HIT:   148  MISS:    35  HIT %: 80.8743  MISS %: 19.1257  AVERAGE MISS PENALTY: 0
LLC7 PREFETCH  REQUESTED:     0  ISSUED:     0  USEFUL:  1222  USELESS: 18487
 USEFUL LOAD PREFETCHES:       1222 PREFETCH ISSUED TO LOWER LEVEL:      22058  ACCURACY: 5.53994
 TIMELY PREFETCHES:       1222 LATE PREFETCHES: 0 DROPPED PREFETCHES: 0
LLC7 AVERAGE MISS LATENCY: 159.847 cycles
ROI Average ROB Stall Cycles:	4.81236
ROI Total ROB Stalls Cycles:	111525359
ROI TOTAL ROB counter      :	23174784
ROI Average Load ROB Stall Cycles:	5.83268
ROI Total Load ROB Stalls Cycle  :	20163880
ROI Total Load ROB stalls Counter:	3457052
Major fault: 0 Minor fault: 4882

CPU 7 cumulative IPC: 1.26098 instructions: 200000000 cycles: 158607084
ITLB TOTAL     ACCESS: 22280052  HIT: 22280052  MISS:     0  HIT %:   100  MISS %:     0  AVERAGE MISS PENALTY: 0
ITLB LOAD      ACCESS: 22280052  HIT: 22280052  MISS:     0  HIT %:   100  MISS %:     0  AVERAGE MISS PENALTY: 0
ITLB RFO       ACCESS:     0  HIT:     0  MISS:     0  HIT %:     0  MISS %:     0  AVERAGE MISS PENALTY: 0
ITLB PREFETCH  ACCESS:     0  HIT:     0  MISS:     0  HIT %:     0  MISS %:     0  AVERAGE MISS PENALTY: 0
ITLB WRITEBACK ACCESS:     0  HIT:     0  MISS:     0  HIT %:     0  MISS %:     0  AVERAGE MISS PENALTY: 0
ITLB PREFETCH  REQUESTED:     0  ISSUED:     0  USEFUL:     0  USELESS:     0
 USEFUL LOAD PREFETCHES:          0 PREFETCH ISSUED TO LOWER LEVEL:          0  ACCURACY: -nan
 TIMELY PREFETCHES:          0 LATE PREFETCHES: 0 DROPPED PREFETCHES: 0
ITLB AVERAGE MISS LATENCY: -nan cycles
DTLB TOTAL     ACCESS: 26799969  HIT: 26777015  MISS: 22954  HIT %: 99.9144  MISS %: 0.0856494  AVERAGE MISS PENALTY: 10.4546
DTLB LOAD      ACCESS: 19114762  HIT: 19097779  MISS: 16983  HIT %: 99.9112  MISS %: 0.0888476  AVERAGE MISS PENALTY: 10.8364
DTLB RFO       ACCESS: 7685207  HIT: 7679236  MISS:  5971  HIT %: 99.9223  MISS %: 0.0776947  AVERAGE MISS PENALTY: 9.36895
DTLB PREFETCH  ACCESS:     0  HIT:     0  MISS:     0  HIT %:     0  MISS %:     0  AVERAGE MISS PENALTY: 0
DTLB WRITEBACK ACCESS:     0  HIT:     0  MISS:     0  HIT %:     0  MISS %:     0  AVERAGE MISS PENALTY: 0
DTLB PREFETCH  REQUESTED:     0  ISSUED:     0  USEFUL:     0  USELESS:     0
 USEFUL LOAD PREFETCHES:          0 PREFETCH ISSUED TO LOWER LEVEL:          0  ACCURACY: -nan
 TIMELY PREFETCHES:          0 LATE PREFETCHES: 0 DROPPED PREFETCHES: 0
DTLB AVERAGE MISS LATENCY: 10.4546 cycles
STLB TOTAL     ACCESS: 22954  HIT: 22630  MISS:   324  HIT %: 98.5885  MISS %: 1.41152  AVERAGE MISS PENALTY: 100
STLB LOAD      ACCESS: 16983  HIT: 16681  MISS:   302  HIT %: 98.2218  MISS %: 1.77825  AVERAGE MISS PENALTY: 100
STLB RFO       ACCESS:  5971  HIT:  5949  MISS:    22  HIT %: 99.6316  MISS %: 0.368447  AVERAGE MISS PENALTY: 100
STLB PREFETCH  ACCESS:     0  HIT:     0  MISS:     0  HIT %:     0  MISS %:     0  AVERAGE MISS PENALTY: 0
STLB WRITEBACK ACCESS:     0  HIT:     0  MISS:     0  HIT %:     0  MISS %:     0  AVERAGE MISS PENALTY: 0
STLB PREFETCH  REQUESTED:     0  ISSUED:     0  USEFUL:     0  USELESS:     0
 USEFUL LOAD PREFETCHES:          0 PREFETCH ISSUED TO LOWER LEVEL:          0  ACCURACY: -nan
 TIMELY PREFETCHES:          0 LATE PREFETCHES: 0 DROPPED PREFETCHES: 0
STLB AVERAGE MISS LATENCY: 100 cycles
L1D TOTAL     ACCESS: 41227640  HIT: 41166083  MISS: 61557  HIT %: 99.8507  MISS %: 0.14931  AVERAGE MISS PENALTY: 1.0004e+07
L1D LOAD      ACCESS: 15257712  HIT: 15243375  MISS: 14337  HIT %: 99.906  MISS %: 0.0939656  AVERAGE MISS PENALTY: 4.29529e+07
L1D RFO       ACCESS: 15190631  HIT: 15189225  MISS:  1406  HIT %: 99.9907  MISS %: 0.00925571  AVERAGE MISS PENALTY: 174.156
L1D PREFETCH  ACCESS: 10779297  HIT: 10733483  MISS: 45814  HIT %: 99.575  MISS %: 0.425018  AVERAGE MISS PENALTY: 73.1201
L1D WRITEBACK ACCESS:     0  HIT:     0  MISS:     0  HIT %:     0  MISS %:     0  AVERAGE MISS PENALTY: 0
L1D PREFETCH  REQUESTED: 11190922  ISSUED: 11150489  USEFUL: 30082  USELESS: 15844
 USEFUL LOAD PREFETCHES:      30082 PREFETCH ISSUED TO LOWER LEVEL:      58067  ACCURACY: 51.8057
 TIMELY PREFETCHES:      30082 LATE PREFETCHES: 4419 DROPPED PREFETCHES: 40433
L1D AVERAGE MISS LATENCY: 86.0642 cycles
L1I TOTAL     ACCESS: 30606878  HIT: 30606877  MISS:     1  HIT %:   100  MISS %: 3.26724e-06  AVERAGE MISS PENALTY: 49
L1I LOAD      ACCESS: 30606878  HIT: 30606877  MISS:     1  HIT %:   100  MISS %: 3.26724e-06  AVERAGE MISS PENALTY: 49
L1I RFO       ACCESS:     0  HIT:     0  MISS:     0  HIT %:     0  MISS %:     0  AVERAGE MISS PENALTY: 0
L1I PREFETCH  ACCESS:     0  HIT:     0  MISS:     0  HIT %:     0  MISS %:     0  AVERAGE MISS PENALTY: 0
L1I WRITEBACK ACCESS:     0  HIT:     0  MISS:     0  HIT %:     0  MISS %:     0  AVERAGE MISS PENALTY: 0
L1I PREFETCH  REQUESTED:     0  ISSUED:     0  USEFUL:     0  USELESS:     0
 USEFUL LOAD PREFETCHES:          0 PREFETCH ISSUED TO LOWER LEVEL:          0  ACCURACY: -nan
 TIMELY PREFETCHES:          0 LATE PREFETCHES: 0 DROPPED PREFETCHES: 0
L1I AVERAGE MISS LATENCY: 49 cycles
L2C TOTAL     ACCESS: 98781  HIT: 57796  MISS: 40985  HIT %: 58.5092  MISS %: 41.4908  AVERAGE MISS PENALTY: 1.21107e+07
L2C LOAD      ACCESS: 13986  HIT:  3762  MISS: 10224  HIT %: 26.8983  MISS %: 73.1017  AVERAGE MISS PENALTY: 4.85478e+07
L2C RFO       ACCESS:  1406  HIT:   139  MISS:  1267  HIT %: 9.8862  MISS %: 90.1138  AVERAGE MISS PENALTY: 176.616
L2C PREFETCH  ACCESS: 81696  HIT: 52245  MISS: 29451  HIT %: 63.9505  MISS %: 36.0495  AVERAGE MISS PENALTY: 141.799
L2C WRITEBACK ACCESS:  1693  HIT:  1650  MISS:    43  HIT %: 97.4601  MISS %: 2.53987  AVERAGE MISS PENALTY: 0
L2C PREFETCH  REQUESTED: 52913  ISSUED: 52690  USEFUL:  2655  USELESS: 27843
 USEFUL LOAD PREFETCHES:       2655 PREFETCH ISSUED TO LOWER LEVEL:      35381  ACCURACY: 7.50403
 TIMELY PREFETCHES:       2655 LATE PREFETCHES: 3657 DROPPED PREFETCHES: 223
L2C AVERAGE MISS LATENCY: 143.992 cycles
LLC0 TOTAL     ACCESS:  5302  HIT:  1699  MISS:  3603  HIT %: 32.0445  MISS %: 67.9555  AVERAGE MISS PENALTY: 156.113
LLC0 LOAD      ACCESS:  1182  HIT:   332  MISS:   850  HIT %: 28.088  MISS %: 71.912  AVERAGE MISS PENALTY: 165.794
LLC0 RFO       ACCESS:   151  HIT:     5  MISS:   146  HIT %: 3.31126  MISS %: 96.6887  AVERAGE MISS PENALTY: 148.685
LLC0 PREFETCH  ACCESS:  3798  HIT:  1232  MISS:  2566  HIT %: 32.4381  MISS %: 67.5619  AVERAGE MISS PENALTY: 155.823
LLC0 WRITEBACK ACCESS:   171  HIT:   130  MISS:    41  HIT %: 76.0234  MISS %: 23.9766  AVERAGE MISS PENALTY: 0
LLC0 PREFETCH  REQUESTED:     0  ISSUED:     0  USEFUL:  1530  USELESS: 17718
 USEFUL LOAD PREFETCHES:       1530 PREFETCH ISSUED TO LOWER LEVEL:      21253  ACCURACY: 7.19898
 TIMELY PREFETCHES:       1530 LATE PREFETCHES: 0 DROPPED PREFETCHES: 0
LLC0 AVERAGE MISS LATENCY: 156.113 cycles
Deadblocks : 6222 Deadblock percentage : 732

LLC1 TOTAL     ACCESS:  5284  HIT:  1742  MISS:  3542  HIT %: 32.9674  MISS %: 67.0326  AVERAGE MISS PENALTY: 157.311
LLC1 LOAD      ACCESS:  1063  HIT:   310  MISS:   753  HIT %: 29.1627  MISS %: 70.8373  AVERAGE MISS PENALTY: 160.707
LLC1 RFO       ACCESS:   159  HIT:     7  MISS:   152  HIT %: 4.40252  MISS %: 95.5975  AVERAGE MISS PENALTY: 137.743
LLC1 PREFETCH  ACCESS:  3894  HIT:  1287  MISS:  2607  HIT %: 33.0508  MISS %: 66.9492  AVERAGE MISS PENALTY: 159.281
LLC1 WRITEBACK ACCESS:   168  HIT:   138  MISS:    30  HIT %: 82.1429  MISS %: 17.8571  AVERAGE MISS PENALTY: 0
LLC1 PREFETCH  REQUESTED:     0  ISSUED:     0  USEFUL:  1543  USELESS: 17769
 USEFUL LOAD PREFETCHES:       1543 PREFETCH ISSUED TO LOWER LEVEL:      21277  ACCURACY: 7.25196
 TIMELY PREFETCHES:       1543 LATE PREFETCHES: 0 DROPPED PREFETCHES: 0
LLC1 AVERAGE MISS LATENCY: 157.311 cycles
LLC2 TOTAL     ACCESS:  5295  HIT:  1715  MISS:  3580  HIT %: 32.389  MISS %: 67.611  AVERAGE MISS PENALTY: 159.785
LLC2 LOAD      ACCESS:  1134  HIT:   346  MISS:   788  HIT %: 30.5115  MISS %: 69.4885  AVERAGE MISS PENALTY: 169.69
LLC2 RFO       ACCESS:   160  HIT:     4  MISS:   156  HIT %:   2.5  MISS %:  97.5  AVERAGE MISS PENALTY: 151.545
LLC2 PREFETCH  ACCESS:  3829  HIT:  1233  MISS:  2596  HIT %: 32.2016  MISS %: 67.7984  AVERAGE MISS PENALTY: 159.735
LLC2 WRITEBACK ACCESS:   172  HIT:   132  MISS:    40  HIT %: 76.7442  MISS %: 23.2558  AVERAGE MISS PENALTY: 0
LLC2 PREFETCH  REQUESTED:     0  ISSUED:     0  USEFUL:  1344  USELESS: 17638
 USEFUL LOAD PREFETCHES:       1344 PREFETCH ISSUED TO LOWER LEVEL:      23110  ACCURACY: 5.81566
 TIMELY PREFETCHES:       1344 LATE PREFETCHES: 0 DROPPED PREFETCHES: 0
LLC2 AVERAGE MISS LATENCY: 159.785 cycles
LLC3 TOTAL     ACCESS:  5288  HIT:  1726  MISS:  3562  HIT %: 32.6399  MISS %: 67.3601  AVERAGE MISS PENALTY: 159.816
LLC3 LOAD      ACCESS:   871  HIT:   262  MISS:   609  HIT %: 30.0804  MISS %: 69.9196  AVERAGE MISS PENALTY: 165.839
LLC3 RFO       ACCESS:   154  HIT:     7  MISS:   147  HIT %: 4.54545  MISS %: 95.4545  AVERAGE MISS PENALTY: 138.578
LLC3 PREFETCH  ACCESS:  4093  HIT:  1308  MISS:  2785  HIT %: 31.957  MISS %: 68.043  AVERAGE MISS PENALTY: 160.826
LLC3 WRITEBACK ACCESS:   170  HIT:   149  MISS:    21  HIT %: 87.6471  MISS %: 12.3529  AVERAGE MISS PENALTY: 0
LLC3 PREFETCH  REQUESTED:     0  ISSUED:     0  USEFUL:  1329  USELESS: 19025
 USEFUL LOAD PREFETCHES:       1329 PREFETCH ISSUED TO LOWER LEVEL:      22636  ACCURACY: 5.87118
 TIMELY PREFETCHES:       1329 LATE PREFETCHES: 0 DROPPED PREFETCHES: 0
LLC3 AVERAGE MISS LATENCY: 159.816 cycles
LLC4 TOTAL     ACCESS:  5279  HIT:  1736  MISS:  3543  HIT %: 32.885  MISS %: 67.115  AVERAGE MISS PENALTY: 160.398
LLC4 LOAD      ACCESS:   728  HIT:   220  MISS:   508  HIT %: 30.2198  MISS %: 69.7802  AVERAGE MISS PENALTY: 158.939
LLC4 RFO       ACCESS:   158  HIT:     6  MISS:   152  HIT %: 3.79747  MISS %: 96.2025  AVERAGE MISS PENALTY: 145.632
LLC4 PREFETCH  ACCESS:  4228  HIT:  1369  MISS:  2859  HIT %: 32.3794  MISS %: 67.6206  AVERAGE MISS PENALTY: 162.788
LLC4 WRITEBACK ACCESS:   165  HIT:   141  MISS:    24  HIT %: 85.4545  MISS %: 14.5455  AVERAGE MISS PENALTY: 0
LLC4 PREFETCH  REQUESTED:     0  ISSUED:     0  USEFUL:  1504  USELESS: 19402
 USEFUL LOAD PREFETCHES:       1504 PREFETCH ISSUED TO LOWER LEVEL:      26913  ACCURACY: 5.58838
 TIMELY PREFETCHES:       1504 LATE PREFETCHES: 0 DROPPED PREFETCHES: 0
LLC4 AVERAGE MISS LATENCY: 160.398 cycles
LLC5 TOTAL     ACCESS:  5285  HIT:  1685  MISS:  3600  HIT %: 31.8827  MISS %: 68.1173  AVERAGE MISS PENALTY: 161.342
LLC5 LOAD      ACCESS:   922  HIT:   311  MISS:   611  HIT %: 33.731  MISS %: 66.269  AVERAGE MISS PENALTY: 174.157
LLC5 RFO       ACCESS:   161  HIT:     5  MISS:   156  HIT %: 3.10559  MISS %: 96.8944  AVERAGE MISS PENALTY: 144.321
LLC5 PREFETCH  ACCESS:  4028  HIT:  1229  MISS:  2799  HIT %: 30.5114  MISS %: 69.4886  AVERAGE MISS PENALTY: 161.453
LLC5 WRITEBACK ACCESS:   174  HIT:   140  MISS:    34  HIT %: 80.4598  MISS %: 19.5402  AVERAGE MISS PENALTY: 0
LLC5 PREFETCH  REQUESTED:     0  ISSUED:     0  USEFUL:  1562  USELESS: 19369
 USEFUL LOAD PREFETCHES:       1562 PREFETCH ISSUED TO LOWER LEVEL:      23195  ACCURACY: 6.73421
 TIMELY PREFETCHES:       1562 LATE PREFETCHES: 0 DROPPED PREFETCHES: 0
LLC5 AVERAGE MISS LATENCY: 161.342 cycles
LLC6 TOTAL     ACCESS:  5275  HIT:  1761  MISS:  3514  HIT %: 33.3839  MISS %: 66.6161  AVERAGE MISS PENALTY: 162.627
LLC6 LOAD      ACCESS:   912  HIT:   292  MISS:   620  HIT %: 32.0175  MISS %: 67.9825  AVERAGE MISS PENALTY: 164.868
LLC6 RFO       ACCESS:   162  HIT:     4  MISS:   158  HIT %: 2.46914  MISS %: 97.5309  AVERAGE MISS PENALTY: 139.424
LLC6 PREFETCH  ACCESS:  4027  HIT:  1314  MISS:  2713  HIT %: 32.6297  MISS %: 67.3703  AVERAGE MISS PENALTY: 164.845
LLC6 WRITEBACK ACCESS:   174  HIT:   151  MISS:    23  HIT %: 86.7816  MISS %: 13.2184  AVERAGE MISS PENALTY: 0
LLC6 PREFETCH  REQUESTED:     0  ISSUED:     0  USEFUL:  1444  USELESS: 18881
 USEFUL LOAD PREFETCHES:       1444 PREFETCH ISSUED TO LOWER LEVEL:      27572  ACCURACY: 5.2372
 TIMELY PREFETCHES:       1444 LATE PREFETCHES: 0 DROPPED PREFETCHES: 0
LLC6 AVERAGE MISS LATENCY: 162.627 cycles
LLC7 TOTAL     ACCESS:  5299  HIT:  1714  MISS:  3585  HIT %: 32.3457  MISS %: 67.6543  AVERAGE MISS PENALTY: 160.252
LLC7 LOAD      ACCESS:  1079  HIT:   338  MISS:   741  HIT %: 31.3253  MISS %: 68.6747  AVERAGE MISS PENALTY: 154.13
LLC7 RFO       ACCESS:   162  HIT:     5  MISS:   157  HIT %: 3.08642  MISS %: 96.9136  AVERAGE MISS PENALTY: 141.981
LLC7 PREFETCH  ACCESS:  3887  HIT:  1226  MISS:  2661  HIT %: 31.541  MISS %: 68.459  AVERAGE MISS PENALTY: 164.6
LLC7 WRITEBACK ACCESS:   171  HIT:   145  MISS:    26  HIT %: 84.7953  MISS %: 15.2047  AVERAGE MISS PENALTY: 0
LLC7 PREFETCH  REQUESTED:     0  ISSUED:     0  USEFUL:  1222  USELESS: 18487
 USEFUL LOAD PREFETCHES:       1222 PREFETCH ISSUED TO LOWER LEVEL:      22058  ACCURACY: 5.53994
 TIMELY PREFETCHES:       1222 LATE PREFETCHES: 0 DROPPED PREFETCHES: 0
LLC7 AVERAGE MISS LATENCY: 160.252 cycles
ROI Average ROB Stall Cycles:	4.81236
ROI Total ROB Stalls Cycles:	111525576
ROI TOTAL ROB counter      :	23174805
ROI Average Load ROB Stall Cycles:	5.83259
ROI Total Load ROB Stalls Cycle  :	20163967
ROI Total Load ROB stalls Counter:	3457121
Major fault: 0 Minor fault: 4882








Interconnect Stats 
LINK 0 BW : 0LINK 1 BW : 0LINK 2 BW : 0LINK 3 BW : 0LINK 4 BW : 0LINK 5 BW : 0LINK 6 BW : 0LINK 7 BW : 0
DRAM Statistics
 CHANNEL 0
 RQ ROW_BUFFER_HIT: 84912  ROW_BUFFER_MISS: 28958
 DBUS_CONGESTED: 31210
 WQ ROW_BUFFER_HIT:  2439  ROW_BUFFER_MISS: 19395  FULL:     0

 CHANNEL 1
 RQ ROW_BUFFER_HIT: 85330  ROW_BUFFER_MISS: 28896
 DBUS_CONGESTED: 31210
 WQ ROW_BUFFER_HIT:  2485  ROW_BUFFER_MISS: 19348  FULL:     0

 AVG_CONGESTED_CYCLE: 5
DRAM PAGES: 2097152
Allocated PAGES: 39056
L2C destructor called
L1D destructor called
L1I destructor called
STLB destructor called
DTLB destructor called
ITLB destructor called
L2C destructor called
L1D destructor called
L1I destructor called
STLB destructor called
DTLB destructor called
ITLB destructor called
L2C destructor called
L1D destructor called
L1I destructor called
STLB destructor called
DTLB destructor called
ITLB destructor called
L2C destructor called
L1D destructor called
L1I destructor called
STLB destructor called
DTLB destructor called
ITLB destructor called
L2C destructor called
L1D destructor called
L1I destructor called
STLB destructor called
DTLB destructor called
ITLB destructor called
L2C destructor called
L1D destructor called
L1I destructor called
STLB destructor called
DTLB destructor called
ITLB destructor called
L2C destructor called
L1D destructor called
L1I destructor called
STLB destructor called
DTLB destructor called
ITLB destructor called
L2C destructor called
L1D destructor called
L1I destructor called
STLB destructor called
DTLB destructor called
ITLB destructor called
