
*** ChampSim Multicore Out-of-Order Simulator ***

Warmup Instructions: 200000000
Simulation Instructions: 200000000
Number of CPUs: 8
threads:1

L1I Configuration:
L1I_SET:64
L1I_WAY:8
L1I_RQ_SIZE:64
L1I_WQ_SIZE:64
L1I_PQ_SIZE:8
L1I_MSHR_SIZE:8

L1D Configuration:
L1D_SET:64
L1D_WAY:12
L1D_RQ_SIZE:64
L1D_WQ_SIZE:64
L1D_PQ_SIZE:8
L1D_MSHR_SIZE:16

L2C Configuration:
L2C_SET:1024
L2C_WAY:8
L2C_RQ_SIZE:32
L2C_WQ_SIZE:32
L2C_PQ_SIZE:16
L2C_MSHR_SIZE:32

LLC Configuration:
LLC_SET:2048
LLC_WAY:16
LLC SLICES:8
LLC_RQ_SIZE:64
LLC_WQ_SIZE:64
LLC_PQ_SIZE:32
LLC_MSHR_SIZE:64

Interconnect OFF
Attacker deprioritize is: OFF
Off-chip DRAM Size: 8192 MB Channels: 2 Width: 64-bit Data Rate: 3200 MT/s
PAGE SIZE in KB: 4.000000 
PAGE SIZE in MB: 0.003906 
PAGE offset in bits: 12 
CEASER-S_LLC:0
MIRAGE : 1
CEASER_LATENCY:3
REMAP : OFF
Partitions : 1
Multi-Step : OFF
BFS : OFF

CPU 0 runs /home/anubhav/spec_2017/649.fotonik3d_s-7084B.champsimtrace.xz
CPU 1 runs /home/anubhav/spec_2017/649.fotonik3d_s-7084B.champsimtrace.xz
CPU 2 runs /home/anubhav/spec_2017/649.fotonik3d_s-7084B.champsimtrace.xz
CPU 3 runs /home/anubhav/spec_2017/649.fotonik3d_s-7084B.champsimtrace.xz
CPU 4 runs /home/anubhav/spec_2017/649.fotonik3d_s-7084B.champsimtrace.xz
CPU 5 runs /home/anubhav/spec_2017/649.fotonik3d_s-7084B.champsimtrace.xz
CPU 6 runs /home/anubhav/spec_2017/649.fotonik3d_s-7084B.champsimtrace.xz
CPU 7 runs /home/anubhav/spec_2017/649.fotonik3d_s-7084B.champsimtrace.xz
CPU 0 Bimodal branch predictor
Initialize Hawkeye state
Initialize Hawkeye state
Initialize Hawkeye state
Initialize Hawkeye state
Initialize Hawkeye state
Initialize Hawkeye state
Initialize Hawkeye state
Initialize Hawkeye state
CPU 1 Bimodal branch predictor
Initialize Hawkeye state
Initialize Hawkeye state
Initialize Hawkeye state
Initialize Hawkeye state
Initialize Hawkeye state
Initialize Hawkeye state
Initialize Hawkeye state
Initialize Hawkeye state
CPU 2 Bimodal branch predictor
Initialize Hawkeye state
Initialize Hawkeye state
Initialize Hawkeye state
Initialize Hawkeye state
Initialize Hawkeye state
Initialize Hawkeye state
Initialize Hawkeye state
Initialize Hawkeye state
CPU 3 Bimodal branch predictor
Initialize Hawkeye state
Initialize Hawkeye state
Initialize Hawkeye state
Initialize Hawkeye state
Initialize Hawkeye state
Initialize Hawkeye state
Initialize Hawkeye state
Initialize Hawkeye state
CPU 4 Bimodal branch predictor
Initialize Hawkeye state
Initialize Hawkeye state
Initialize Hawkeye state
Initialize Hawkeye state
Initialize Hawkeye state
Initialize Hawkeye state
Initialize Hawkeye state
Initialize Hawkeye state
CPU 5 Bimodal branch predictor
Initialize Hawkeye state
Initialize Hawkeye state
Initialize Hawkeye state
Initialize Hawkeye state
Initialize Hawkeye state
Initialize Hawkeye state
Initialize Hawkeye state
Initialize Hawkeye state
CPU 6 Bimodal branch predictor
Initialize Hawkeye state
Initialize Hawkeye state
Initialize Hawkeye state
Initialize Hawkeye state
Initialize Hawkeye state
Initialize Hawkeye state
Initialize Hawkeye state
Initialize Hawkeye state
CPU 7 Bimodal branch predictor
Initialize Hawkeye state
Initialize Hawkeye state
Initialize Hawkeye state
Initialize Hawkeye state
Initialize Hawkeye state
Initialize Hawkeye state
Initialize Hawkeye state
Initialize Hawkeye state
Heartbeat CPU 6 instructions: 10000000 cycles: 4056937 heartbeat IPC: 2.46491 cumulative IPC: 2.46491 (Simulation time: 0 hr 27 min 35 sec) 
 Total Blocks : 262144 Invalid Blocks : 1125
Heartbeat CPU 4 instructions: 10000000 cycles: 4056943 heartbeat IPC: 2.46491 cumulative IPC: 2.46491 (Simulation time: 0 hr 27 min 35 sec) 
 Total Blocks : 262144 Invalid Blocks : 1125
Heartbeat CPU 1 instructions: 10000000 cycles: 4056947 heartbeat IPC: 2.46491 cumulative IPC: 2.46491 (Simulation time: 0 hr 27 min 35 sec) 
 Total Blocks : 262144 Invalid Blocks : 1125
Heartbeat CPU 3 instructions: 10000000 cycles: 4056974 heartbeat IPC: 2.46489 cumulative IPC: 2.46489 (Simulation time: 0 hr 27 min 35 sec) 
 Total Blocks : 262144 Invalid Blocks : 1125
Heartbeat CPU 0 instructions: 10000000 cycles: 4056986 heartbeat IPC: 2.46488 cumulative IPC: 2.46488 (Simulation time: 0 hr 27 min 35 sec) 
 Total Blocks : 262144 Invalid Blocks : 1125
Heartbeat CPU 2 instructions: 10000000 cycles: 4056988 heartbeat IPC: 2.46488 cumulative IPC: 2.46488 (Simulation time: 0 hr 27 min 35 sec) 
 Total Blocks : 262144 Invalid Blocks : 1125
Heartbeat CPU 5 instructions: 10000000 cycles: 4056995 heartbeat IPC: 2.46488 cumulative IPC: 2.46488 (Simulation time: 0 hr 27 min 35 sec) 
 Total Blocks : 262144 Invalid Blocks : 1125
Heartbeat CPU 7 instructions: 10000000 cycles: 4057007 heartbeat IPC: 2.46487 cumulative IPC: 2.46487 (Simulation time: 0 hr 27 min 35 sec) 
 Total Blocks : 262144 Invalid Blocks : 1125
Heartbeat CPU 4 instructions: 20000000 cycles: 8114154 heartbeat IPC: 2.46475 cumulative IPC: 2.46483 (Simulation time: 1 hr 1 min 42 sec) 
 Total Blocks : 262144 Invalid Blocks : 6
Heartbeat CPU 1 instructions: 20000000 cycles: 8114155 heartbeat IPC: 2.46475 cumulative IPC: 2.46483 (Simulation time: 1 hr 1 min 42 sec) 
 Total Blocks : 262144 Invalid Blocks : 6
Heartbeat CPU 6 instructions: 20000000 cycles: 8114181 heartbeat IPC: 2.46473 cumulative IPC: 2.46482 (Simulation time: 1 hr 1 min 42 sec) 
 Total Blocks : 262144 Invalid Blocks : 6
Heartbeat CPU 0 instructions: 20000000 cycles: 8114185 heartbeat IPC: 2.46475 cumulative IPC: 2.46482 (Simulation time: 1 hr 1 min 42 sec) 
 Total Blocks : 262144 Invalid Blocks : 6
Heartbeat CPU 2 instructions: 20000000 cycles: 8114205 heartbeat IPC: 2.46474 cumulative IPC: 2.46481 (Simulation time: 1 hr 1 min 42 sec) 
 Total Blocks : 262144 Invalid Blocks : 6
Heartbeat CPU 3 instructions: 20000000 cycles: 8114209 heartbeat IPC: 2.46473 cumulative IPC: 2.46481 (Simulation time: 1 hr 1 min 42 sec) 
 Total Blocks : 262144 Invalid Blocks : 6
Heartbeat CPU 5 instructions: 20000000 cycles: 8114222 heartbeat IPC: 2.46474 cumulative IPC: 2.46481 (Simulation time: 1 hr 1 min 42 sec) 
 Total Blocks : 262144 Invalid Blocks : 6
Heartbeat CPU 7 instructions: 20000000 cycles: 8114241 heartbeat IPC: 2.46473 cumulative IPC: 2.4648 (Simulation time: 1 hr 1 min 42 sec) 
 Total Blocks : 262144 Invalid Blocks : 6
Heartbeat CPU 4 instructions: 30000001 cycles: 12165537 heartbeat IPC: 2.46829 cumulative IPC: 2.46598 (Simulation time: 1 hr 40 min 21 sec) 
 Total Blocks : 262144 Invalid Blocks : 0
Heartbeat CPU 1 instructions: 30000001 cycles: 12165548 heartbeat IPC: 2.46829 cumulative IPC: 2.46598 (Simulation time: 1 hr 40 min 21 sec) 
 Total Blocks : 262144 Invalid Blocks : 0
Heartbeat CPU 6 instructions: 30000001 cycles: 12165573 heartbeat IPC: 2.46829 cumulative IPC: 2.46598 (Simulation time: 1 hr 40 min 21 sec) 
 Total Blocks : 262144 Invalid Blocks : 0
Heartbeat CPU 0 instructions: 30000001 cycles: 12165581 heartbeat IPC: 2.46829 cumulative IPC: 2.46597 (Simulation time: 1 hr 40 min 21 sec) 
 Total Blocks : 262144 Invalid Blocks : 0
Heartbeat CPU 3 instructions: 30000001 cycles: 12165593 heartbeat IPC: 2.46829 cumulative IPC: 2.46597 (Simulation time: 1 hr 40 min 21 sec) 
 Total Blocks : 262144 Invalid Blocks : 0
Heartbeat CPU 2 instructions: 30000001 cycles: 12165606 heartbeat IPC: 2.46828 cumulative IPC: 2.46597 (Simulation time: 1 hr 40 min 21 sec) 
 Total Blocks : 262144 Invalid Blocks : 0
Heartbeat CPU 5 instructions: 30000001 cycles: 12165622 heartbeat IPC: 2.46828 cumulative IPC: 2.46597 (Simulation time: 1 hr 40 min 22 sec) 
 Total Blocks : 262144 Invalid Blocks : 0
Heartbeat CPU 7 instructions: 30000001 cycles: 12165637 heartbeat IPC: 2.46829 cumulative IPC: 2.46596 (Simulation time: 1 hr 40 min 22 sec) 
 Total Blocks : 262144 Invalid Blocks : 0
Heartbeat CPU 4 instructions: 40000001 cycles: 16214972 heartbeat IPC: 2.46948 cumulative IPC: 2.46686 (Simulation time: 2 hr 24 min 18 sec) 
 Total Blocks : 262144 Invalid Blocks : 0
Heartbeat CPU 1 instructions: 40000001 cycles: 16214974 heartbeat IPC: 2.46949 cumulative IPC: 2.46686 (Simulation time: 2 hr 24 min 18 sec) 
 Total Blocks : 262144 Invalid Blocks : 0
Heartbeat CPU 0 instructions: 40000001 cycles: 16214999 heartbeat IPC: 2.46949 cumulative IPC: 2.46685 (Simulation time: 2 hr 24 min 18 sec) 
 Total Blocks : 262144 Invalid Blocks : 0
Heartbeat CPU 6 instructions: 40000001 cycles: 16215007 heartbeat IPC: 2.46948 cumulative IPC: 2.46685 (Simulation time: 2 hr 24 min 18 sec) 
 Total Blocks : 262144 Invalid Blocks : 0
Heartbeat CPU 2 instructions: 40000001 cycles: 16215045 heartbeat IPC: 2.46948 cumulative IPC: 2.46684 (Simulation time: 2 hr 24 min 18 sec) 
 Total Blocks : 262144 Invalid Blocks : 0
Heartbeat CPU 3 instructions: 40000001 cycles: 16215054 heartbeat IPC: 2.46946 cumulative IPC: 2.46684 (Simulation time: 2 hr 24 min 18 sec) 
 Total Blocks : 262144 Invalid Blocks : 0
Heartbeat CPU 5 instructions: 40000001 cycles: 16215065 heartbeat IPC: 2.46948 cumulative IPC: 2.46684 (Simulation time: 2 hr 24 min 18 sec) 
 Total Blocks : 262144 Invalid Blocks : 0
Heartbeat CPU 7 instructions: 40000001 cycles: 16215080 heartbeat IPC: 2.46948 cumulative IPC: 2.46684 (Simulation time: 2 hr 24 min 18 sec) 
 Total Blocks : 262144 Invalid Blocks : 0
Heartbeat CPU 1 instructions: 50000001 cycles: 20264159 heartbeat IPC: 2.46963 cumulative IPC: 2.46741 (Simulation time: 3 hr 13 min 19 sec) 
 Total Blocks : 262144 Invalid Blocks : 0
Heartbeat CPU 4 instructions: 50000001 cycles: 20264171 heartbeat IPC: 2.46962 cumulative IPC: 2.46741 (Simulation time: 3 hr 13 min 19 sec) 
 Total Blocks : 262144 Invalid Blocks : 0
Heartbeat CPU 0 instructions: 50000001 cycles: 20264181 heartbeat IPC: 2.46963 cumulative IPC: 2.46741 (Simulation time: 3 hr 13 min 19 sec) 
 Total Blocks : 262144 Invalid Blocks : 0
Heartbeat CPU 6 instructions: 50000001 cycles: 20264217 heartbeat IPC: 2.46962 cumulative IPC: 2.4674 (Simulation time: 3 hr 13 min 19 sec) 
 Total Blocks : 262144 Invalid Blocks : 0
Heartbeat CPU 2 instructions: 50000001 cycles: 20264246 heartbeat IPC: 2.46962 cumulative IPC: 2.4674 (Simulation time: 3 hr 13 min 19 sec) 
 Total Blocks : 262144 Invalid Blocks : 0
Heartbeat CPU 3 instructions: 50000001 cycles: 20264259 heartbeat IPC: 2.46962 cumulative IPC: 2.4674 (Simulation time: 3 hr 13 min 19 sec) 
 Total Blocks : 262144 Invalid Blocks : 0
Heartbeat CPU 5 instructions: 50000001 cycles: 20264277 heartbeat IPC: 2.46962 cumulative IPC: 2.4674 (Simulation time: 3 hr 13 min 19 sec) 
 Total Blocks : 262144 Invalid Blocks : 0
Heartbeat CPU 7 instructions: 50000001 cycles: 20264292 heartbeat IPC: 2.46962 cumulative IPC: 2.46739 (Simulation time: 3 hr 13 min 19 sec) 
 Total Blocks : 262144 Invalid Blocks : 0
Heartbeat CPU 1 instructions: 60000001 cycles: 24311639 heartbeat IPC: 2.47067 cumulative IPC: 2.46795 (Simulation time: 4 hr 7 min 54 sec) 
 Total Blocks : 262144 Invalid Blocks : 0
Heartbeat CPU 0 instructions: 60000001 cycles: 24311666 heartbeat IPC: 2.47067 cumulative IPC: 2.46795 (Simulation time: 4 hr 7 min 54 sec) 
 Total Blocks : 262144 Invalid Blocks : 0
Heartbeat CPU 4 instructions: 60000001 cycles: 24311680 heartbeat IPC: 2.47066 cumulative IPC: 2.46795 (Simulation time: 4 hr 7 min 54 sec) 
 Total Blocks : 262144 Invalid Blocks : 0
Heartbeat CPU 6 instructions: 60000001 cycles: 24311706 heartbeat IPC: 2.47067 cumulative IPC: 2.46795 (Simulation time: 4 hr 7 min 54 sec) 
 Total Blocks : 262144 Invalid Blocks : 0
Heartbeat CPU 2 instructions: 60000001 cycles: 24311725 heartbeat IPC: 2.47067 cumulative IPC: 2.46795 (Simulation time: 4 hr 7 min 54 sec) 
 Total Blocks : 262144 Invalid Blocks : 0
Heartbeat CPU 3 instructions: 60000001 cycles: 24311756 heartbeat IPC: 2.47066 cumulative IPC: 2.46794 (Simulation time: 4 hr 7 min 54 sec) 
 Total Blocks : 262144 Invalid Blocks : 0
Heartbeat CPU 5 instructions: 60000001 cycles: 24311768 heartbeat IPC: 2.47067 cumulative IPC: 2.46794 (Simulation time: 4 hr 7 min 54 sec) 
 Total Blocks : 262144 Invalid Blocks : 0
Heartbeat CPU 7 instructions: 60000001 cycles: 24311793 heartbeat IPC: 2.47066 cumulative IPC: 2.46794 (Simulation time: 4 hr 7 min 54 sec) 
 Total Blocks : 262144 Invalid Blocks : 0
Heartbeat CPU 1 instructions: 70000003 cycles: 28358441 heartbeat IPC: 2.47109 cumulative IPC: 2.4684 (Simulation time: 5 hr 6 min 57 sec) 
 Total Blocks : 262144 Invalid Blocks : 0
Heartbeat CPU 0 instructions: 70000003 cycles: 28358468 heartbeat IPC: 2.47109 cumulative IPC: 2.4684 (Simulation time: 5 hr 6 min 57 sec) 
 Total Blocks : 262144 Invalid Blocks : 0
Heartbeat CPU 4 instructions: 70000003 cycles: 28358487 heartbeat IPC: 2.47108 cumulative IPC: 2.4684 (Simulation time: 5 hr 6 min 57 sec) 
 Total Blocks : 262144 Invalid Blocks : 0
Heartbeat CPU 6 instructions: 70000003 cycles: 28358521 heartbeat IPC: 2.47108 cumulative IPC: 2.46839 (Simulation time: 5 hr 6 min 57 sec) 
 Total Blocks : 262144 Invalid Blocks : 0
Heartbeat CPU 2 instructions: 70000003 cycles: 28358532 heartbeat IPC: 2.47108 cumulative IPC: 2.46839 (Simulation time: 5 hr 6 min 57 sec) 
 Total Blocks : 262144 Invalid Blocks : 0
Heartbeat CPU 3 instructions: 70000003 cycles: 28358562 heartbeat IPC: 2.47109 cumulative IPC: 2.46839 (Simulation time: 5 hr 6 min 57 sec) 
 Total Blocks : 262144 Invalid Blocks : 0
Heartbeat CPU 5 instructions: 70000003 cycles: 28358594 heartbeat IPC: 2.47107 cumulative IPC: 2.46839 (Simulation time: 5 hr 6 min 57 sec) 
 Total Blocks : 262144 Invalid Blocks : 0
Heartbeat CPU 7 instructions: 70000003 cycles: 28358624 heartbeat IPC: 2.47107 cumulative IPC: 2.46838 (Simulation time: 5 hr 6 min 57 sec) 
 Total Blocks : 262144 Invalid Blocks : 0
Heartbeat CPU 1 instructions: 80000002 cycles: 32414943 heartbeat IPC: 2.46518 cumulative IPC: 2.468 (Simulation time: 6 hr 11 min 18 sec) 
 Total Blocks : 262144 Invalid Blocks : 0
Heartbeat CPU 0 instructions: 80000002 cycles: 32414960 heartbeat IPC: 2.46518 cumulative IPC: 2.468 (Simulation time: 6 hr 11 min 18 sec) 
 Total Blocks : 262144 Invalid Blocks : 0
Heartbeat CPU 4 instructions: 80000002 cycles: 32414982 heartbeat IPC: 2.46518 cumulative IPC: 2.46799 (Simulation time: 6 hr 11 min 18 sec) 
 Total Blocks : 262144 Invalid Blocks : 0
Heartbeat CPU 6 instructions: 80000002 cycles: 32415021 heartbeat IPC: 2.46518 cumulative IPC: 2.46799 (Simulation time: 6 hr 11 min 18 sec) 
 Total Blocks : 262144 Invalid Blocks : 0
Heartbeat CPU 2 instructions: 80000002 cycles: 32415025 heartbeat IPC: 2.46518 cumulative IPC: 2.46799 (Simulation time: 6 hr 11 min 18 sec) 
 Total Blocks : 262144 Invalid Blocks : 0
Heartbeat CPU 3 instructions: 80000002 cycles: 32415066 heartbeat IPC: 2.46518 cumulative IPC: 2.46799 (Simulation time: 6 hr 11 min 18 sec) 
 Total Blocks : 262144 Invalid Blocks : 0
Heartbeat CPU 5 instructions: 80000002 cycles: 32415095 heartbeat IPC: 2.46518 cumulative IPC: 2.46799 (Simulation time: 6 hr 11 min 18 sec) 
 Total Blocks : 262144 Invalid Blocks : 0
Heartbeat CPU 7 instructions: 80000002 cycles: 32415131 heartbeat IPC: 2.46517 cumulative IPC: 2.46798 (Simulation time: 6 hr 11 min 18 sec) 
 Total Blocks : 262144 Invalid Blocks : 0
Heartbeat CPU 1 instructions: 90000002 cycles: 36465601 heartbeat IPC: 2.46873 cumulative IPC: 2.46808 (Simulation time: 7 hr 22 min 41 sec) 
 Total Blocks : 262144 Invalid Blocks : 0
Heartbeat CPU 0 instructions: 90000002 cycles: 36465624 heartbeat IPC: 2.46873 cumulative IPC: 2.46808 (Simulation time: 7 hr 22 min 41 sec) 
 Total Blocks : 262144 Invalid Blocks : 0
Heartbeat CPU 4 instructions: 90000002 cycles: 36465647 heartbeat IPC: 2.46873 cumulative IPC: 2.46808 (Simulation time: 7 hr 22 min 41 sec) 
 Total Blocks : 262144 Invalid Blocks : 0
Heartbeat CPU 6 instructions: 90000002 cycles: 36465695 heartbeat IPC: 2.46872 cumulative IPC: 2.46807 (Simulation time: 7 hr 22 min 41 sec) 
 Total Blocks : 262144 Invalid Blocks : 0
Heartbeat CPU 2 instructions: 90000002 cycles: 36465696 heartbeat IPC: 2.46873 cumulative IPC: 2.46807 (Simulation time: 7 hr 22 min 41 sec) 
 Total Blocks : 262144 Invalid Blocks : 0
Heartbeat CPU 3 instructions: 90000002 cycles: 36465720 heartbeat IPC: 2.46874 cumulative IPC: 2.46807 (Simulation time: 7 hr 22 min 42 sec) 
 Total Blocks : 262144 Invalid Blocks : 0
Heartbeat CPU 5 instructions: 90000002 cycles: 36465741 heartbeat IPC: 2.46874 cumulative IPC: 2.46807 (Simulation time: 7 hr 22 min 42 sec) 
 Total Blocks : 262144 Invalid Blocks : 0
Heartbeat CPU 7 instructions: 90000002 cycles: 36465800 heartbeat IPC: 2.46873 cumulative IPC: 2.46807 (Simulation time: 7 hr 22 min 42 sec) 
 Total Blocks : 262144 Invalid Blocks : 0
Heartbeat CPU 1 instructions: 100000000 cycles: 40512069 heartbeat IPC: 2.47129 cumulative IPC: 2.4684 (Simulation time: 8 hr 41 min 43 sec) 
 Total Blocks : 262144 Invalid Blocks : 0
Heartbeat CPU 0 instructions: 100000000 cycles: 40512090 heartbeat IPC: 2.47129 cumulative IPC: 2.4684 (Simulation time: 8 hr 41 min 43 sec) 
 Total Blocks : 262144 Invalid Blocks : 0
Heartbeat CPU 4 instructions: 100000000 cycles: 40512126 heartbeat IPC: 2.47128 cumulative IPC: 2.4684 (Simulation time: 8 hr 41 min 43 sec) 
 Total Blocks : 262144 Invalid Blocks : 0
Heartbeat CPU 2 instructions: 100000000 cycles: 40512159 heartbeat IPC: 2.47129 cumulative IPC: 2.46839 (Simulation time: 8 hr 41 min 43 sec) 
 Total Blocks : 262144 Invalid Blocks : 0
Heartbeat CPU 6 instructions: 100000000 cycles: 40512185 heartbeat IPC: 2.47128 cumulative IPC: 2.46839 (Simulation time: 8 hr 41 min 43 sec) 
 Total Blocks : 262144 Invalid Blocks : 0
Heartbeat CPU 3 instructions: 100000000 cycles: 40512188 heartbeat IPC: 2.47129 cumulative IPC: 2.46839 (Simulation time: 8 hr 41 min 43 sec) 
 Total Blocks : 262144 Invalid Blocks : 0
Heartbeat CPU 5 instructions: 100000000 cycles: 40512213 heartbeat IPC: 2.47129 cumulative IPC: 2.46839 (Simulation time: 8 hr 41 min 43 sec) 
 Total Blocks : 262144 Invalid Blocks : 0
Heartbeat CPU 7 instructions: 100000000 cycles: 40512270 heartbeat IPC: 2.47129 cumulative IPC: 2.46839 (Simulation time: 8 hr 41 min 43 sec) 
 Total Blocks : 262144 Invalid Blocks : 0
Heartbeat CPU 1 instructions: 110000000 cycles: 44558616 heartbeat IPC: 2.47124 cumulative IPC: 2.46866 (Simulation time: 10 hr 3 min 47 sec) 
 Total Blocks : 262144 Invalid Blocks : 0
Heartbeat CPU 0 instructions: 110000000 cycles: 44558634 heartbeat IPC: 2.47124 cumulative IPC: 2.46866 (Simulation time: 10 hr 3 min 47 sec) 
 Total Blocks : 262144 Invalid Blocks : 0
Heartbeat CPU 4 instructions: 110000000 cycles: 44558677 heartbeat IPC: 2.47124 cumulative IPC: 2.46865 (Simulation time: 10 hr 3 min 47 sec) 
 Total Blocks : 262144 Invalid Blocks : 0
Heartbeat CPU 2 instructions: 110000000 cycles: 44558721 heartbeat IPC: 2.47123 cumulative IPC: 2.46865 (Simulation time: 10 hr 3 min 47 sec) 
 Total Blocks : 262144 Invalid Blocks : 0
Heartbeat CPU 6 instructions: 110000000 cycles: 44558746 heartbeat IPC: 2.47123 cumulative IPC: 2.46865 (Simulation time: 10 hr 3 min 47 sec) 
 Total Blocks : 262144 Invalid Blocks : 0
Heartbeat CPU 3 instructions: 110000000 cycles: 44558755 heartbeat IPC: 2.47123 cumulative IPC: 2.46865 (Simulation time: 10 hr 3 min 47 sec) 
 Total Blocks : 262144 Invalid Blocks : 0
Heartbeat CPU 5 instructions: 110000000 cycles: 44558785 heartbeat IPC: 2.47123 cumulative IPC: 2.46865 (Simulation time: 10 hr 3 min 47 sec) 
 Total Blocks : 262144 Invalid Blocks : 0
Heartbeat CPU 7 instructions: 110000000 cycles: 44558847 heartbeat IPC: 2.47122 cumulative IPC: 2.46865 (Simulation time: 10 hr 3 min 47 sec) 
 Total Blocks : 262144 Invalid Blocks : 0
Heartbeat CPU 1 instructions: 120000003 cycles: 48604919 heartbeat IPC: 2.47139 cumulative IPC: 2.46889 (Simulation time: 11 hr 25 min 40 sec) 
 Total Blocks : 262144 Invalid Blocks : 0
Heartbeat CPU 0 instructions: 120000003 cycles: 48604938 heartbeat IPC: 2.47139 cumulative IPC: 2.46888 (Simulation time: 11 hr 25 min 40 sec) 
 Total Blocks : 262144 Invalid Blocks : 0
Heartbeat CPU 4 instructions: 120000003 cycles: 48604982 heartbeat IPC: 2.47139 cumulative IPC: 2.46888 (Simulation time: 11 hr 25 min 40 sec) 
 Total Blocks : 262144 Invalid Blocks : 0
Heartbeat CPU 2 instructions: 120000003 cycles: 48605028 heartbeat IPC: 2.47139 cumulative IPC: 2.46888 (Simulation time: 11 hr 25 min 40 sec) 
 Total Blocks : 262144 Invalid Blocks : 0
Heartbeat CPU 3 instructions: 120000003 cycles: 48605050 heartbeat IPC: 2.4714 cumulative IPC: 2.46888 (Simulation time: 11 hr 25 min 40 sec) 
 Total Blocks : 262144 Invalid Blocks : 0
Heartbeat CPU 6 instructions: 120000003 cycles: 48605094 heartbeat IPC: 2.47136 cumulative IPC: 2.46888 (Simulation time: 11 hr 25 min 40 sec) 
 Total Blocks : 262144 Invalid Blocks : 0
Heartbeat CPU 5 instructions: 120000003 cycles: 48605098 heartbeat IPC: 2.47139 cumulative IPC: 2.46888 (Simulation time: 11 hr 25 min 40 sec) 
 Total Blocks : 262144 Invalid Blocks : 0
Heartbeat CPU 7 instructions: 120000003 cycles: 48605174 heartbeat IPC: 2.47138 cumulative IPC: 2.46887 (Simulation time: 11 hr 25 min 40 sec) 
 Total Blocks : 262144 Invalid Blocks : 0
Heartbeat CPU 0 instructions: 130000002 cycles: 52650970 heartbeat IPC: 2.47156 cumulative IPC: 2.46909 (Simulation time: 12 hr 47 min 47 sec) 
 Total Blocks : 262144 Invalid Blocks : 0
Heartbeat CPU 1 instructions: 130000002 cycles: 52650983 heartbeat IPC: 2.47154 cumulative IPC: 2.46909 (Simulation time: 12 hr 47 min 47 sec) 
 Total Blocks : 262144 Invalid Blocks : 0
Heartbeat CPU 4 instructions: 130000002 cycles: 52651027 heartbeat IPC: 2.47155 cumulative IPC: 2.46909 (Simulation time: 12 hr 47 min 47 sec) 
 Total Blocks : 262144 Invalid Blocks : 0
Heartbeat CPU 2 instructions: 130000002 cycles: 52651075 heartbeat IPC: 2.47155 cumulative IPC: 2.46909 (Simulation time: 12 hr 47 min 48 sec) 
 Total Blocks : 262144 Invalid Blocks : 0
Heartbeat CPU 3 instructions: 130000002 cycles: 52651095 heartbeat IPC: 2.47155 cumulative IPC: 2.46908 (Simulation time: 12 hr 47 min 48 sec) 
 Total Blocks : 262144 Invalid Blocks : 0
Heartbeat CPU 5 instructions: 130000002 cycles: 52651151 heartbeat IPC: 2.47154 cumulative IPC: 2.46908 (Simulation time: 12 hr 47 min 48 sec) 
 Total Blocks : 262144 Invalid Blocks : 0
Heartbeat CPU 6 instructions: 130000002 cycles: 52651159 heartbeat IPC: 2.47154 cumulative IPC: 2.46908 (Simulation time: 12 hr 47 min 48 sec) 
 Total Blocks : 262144 Invalid Blocks : 0
Heartbeat CPU 7 instructions: 130000002 cycles: 52651217 heartbeat IPC: 2.47155 cumulative IPC: 2.46908 (Simulation time: 12 hr 47 min 48 sec) 
 Total Blocks : 262144 Invalid Blocks : 0
Heartbeat CPU 0 instructions: 140000000 cycles: 56702585 heartbeat IPC: 2.46815 cumulative IPC: 2.46902 (Simulation time: 14 hr 11 min 31 sec) 
 Total Blocks : 262144 Invalid Blocks : 0
Heartbeat CPU 1 instructions: 140000000 cycles: 56702607 heartbeat IPC: 2.46815 cumulative IPC: 2.46902 (Simulation time: 14 hr 11 min 31 sec) 
 Total Blocks : 262144 Invalid Blocks : 0
Heartbeat CPU 4 instructions: 140000000 cycles: 56702645 heartbeat IPC: 2.46815 cumulative IPC: 2.46902 (Simulation time: 14 hr 11 min 31 sec) 
 Total Blocks : 262144 Invalid Blocks : 0
Heartbeat CPU 2 instructions: 140000000 cycles: 56702690 heartbeat IPC: 2.46815 cumulative IPC: 2.46902 (Simulation time: 14 hr 11 min 31 sec) 
 Total Blocks : 262144 Invalid Blocks : 0
Heartbeat CPU 3 instructions: 140000000 cycles: 56702722 heartbeat IPC: 2.46814 cumulative IPC: 2.46902 (Simulation time: 14 hr 11 min 31 sec) 
 Total Blocks : 262144 Invalid Blocks : 0
Heartbeat CPU 5 instructions: 140000000 cycles: 56702765 heartbeat IPC: 2.46815 cumulative IPC: 2.46902 (Simulation time: 14 hr 11 min 31 sec) 
 Total Blocks : 262144 Invalid Blocks : 0
Heartbeat CPU 6 instructions: 140000000 cycles: 56702798 heartbeat IPC: 2.46814 cumulative IPC: 2.46901 (Simulation time: 14 hr 11 min 32 sec) 
 Total Blocks : 262144 Invalid Blocks : 0
Heartbeat CPU 7 instructions: 140000000 cycles: 56702829 heartbeat IPC: 2.46815 cumulative IPC: 2.46901 (Simulation time: 14 hr 11 min 32 sec) 
 Total Blocks : 262144 Invalid Blocks : 0
Heartbeat CPU 0 instructions: 150000000 cycles: 60761680 heartbeat IPC: 2.4636 cumulative IPC: 2.46866 (Simulation time: 15 hr 38 min 45 sec) 
 Total Blocks : 262144 Invalid Blocks : 0
Heartbeat CPU 1 instructions: 150000000 cycles: 60761703 heartbeat IPC: 2.4636 cumulative IPC: 2.46866 (Simulation time: 15 hr 38 min 45 sec) 
 Total Blocks : 262144 Invalid Blocks : 0
Heartbeat CPU 4 instructions: 150000000 cycles: 60761740 heartbeat IPC: 2.4636 cumulative IPC: 2.46866 (Simulation time: 15 hr 38 min 45 sec) 
 Total Blocks : 262144 Invalid Blocks : 0
Heartbeat CPU 2 instructions: 150000000 cycles: 60761791 heartbeat IPC: 2.4636 cumulative IPC: 2.46866 (Simulation time: 15 hr 38 min 45 sec) 
 Total Blocks : 262144 Invalid Blocks : 0
Heartbeat CPU 3 instructions: 150000000 cycles: 60761825 heartbeat IPC: 2.4636 cumulative IPC: 2.46866 (Simulation time: 15 hr 38 min 45 sec) 
 Total Blocks : 262144 Invalid Blocks : 0
Heartbeat CPU 5 instructions: 150000000 cycles: 60761862 heartbeat IPC: 2.4636 cumulative IPC: 2.46865 (Simulation time: 15 hr 38 min 45 sec) 
 Total Blocks : 262144 Invalid Blocks : 0
Heartbeat CPU 6 instructions: 150000000 cycles: 60761900 heartbeat IPC: 2.4636 cumulative IPC: 2.46865 (Simulation time: 15 hr 38 min 45 sec) 
 Total Blocks : 262144 Invalid Blocks : 0
Heartbeat CPU 7 instructions: 150000000 cycles: 60761933 heartbeat IPC: 2.4636 cumulative IPC: 2.46865 (Simulation time: 15 hr 38 min 45 sec) 
 Total Blocks : 262144 Invalid Blocks : 0
Heartbeat CPU 0 instructions: 160000001 cycles: 64813242 heartbeat IPC: 2.46818 cumulative IPC: 2.46863 (Simulation time: 17 hr 9 min 55 sec) 
 Total Blocks : 262144 Invalid Blocks : 0
Heartbeat CPU 1 instructions: 160000001 cycles: 64813263 heartbeat IPC: 2.46819 cumulative IPC: 2.46863 (Simulation time: 17 hr 9 min 55 sec) 
 Total Blocks : 262144 Invalid Blocks : 0
Heartbeat CPU 4 instructions: 160000001 cycles: 64813308 heartbeat IPC: 2.46818 cumulative IPC: 2.46863 (Simulation time: 17 hr 9 min 55 sec) 
 Total Blocks : 262144 Invalid Blocks : 0
Heartbeat CPU 2 instructions: 160000001 cycles: 64813358 heartbeat IPC: 2.46818 cumulative IPC: 2.46863 (Simulation time: 17 hr 9 min 55 sec) 
 Total Blocks : 262144 Invalid Blocks : 0
Heartbeat CPU 3 instructions: 160000001 cycles: 64813399 heartbeat IPC: 2.46818 cumulative IPC: 2.46863 (Simulation time: 17 hr 9 min 55 sec) 
 Total Blocks : 262144 Invalid Blocks : 0
Heartbeat CPU 5 instructions: 160000001 cycles: 64813429 heartbeat IPC: 2.46818 cumulative IPC: 2.46862 (Simulation time: 17 hr 9 min 55 sec) 
 Total Blocks : 262144 Invalid Blocks : 0
Heartbeat CPU 6 instructions: 160000001 cycles: 64813471 heartbeat IPC: 2.46818 cumulative IPC: 2.46862 (Simulation time: 17 hr 9 min 55 sec) 
 Total Blocks : 262144 Invalid Blocks : 0
Heartbeat CPU 7 instructions: 160000001 cycles: 64813503 heartbeat IPC: 2.46818 cumulative IPC: 2.46862 (Simulation time: 17 hr 9 min 55 sec) 
 Total Blocks : 262144 Invalid Blocks : 0
Heartbeat CPU 0 instructions: 170000002 cycles: 68862974 heartbeat IPC: 2.4693 cumulative IPC: 2.46867 (Simulation time: 18 hr 47 min 35 sec) 
 Total Blocks : 262144 Invalid Blocks : 0
Heartbeat CPU 1 instructions: 170000002 cycles: 68863008 heartbeat IPC: 2.46929 cumulative IPC: 2.46867 (Simulation time: 18 hr 47 min 35 sec) 
 Total Blocks : 262144 Invalid Blocks : 0
Heartbeat CPU 4 instructions: 170000002 cycles: 68863043 heartbeat IPC: 2.4693 cumulative IPC: 2.46867 (Simulation time: 18 hr 47 min 35 sec) 
 Total Blocks : 262144 Invalid Blocks : 0
Heartbeat CPU 2 instructions: 170000002 cycles: 68863100 heartbeat IPC: 2.46929 cumulative IPC: 2.46867 (Simulation time: 18 hr 47 min 35 sec) 
 Total Blocks : 262144 Invalid Blocks : 0
Heartbeat CPU 3 instructions: 170000002 cycles: 68863144 heartbeat IPC: 2.46929 cumulative IPC: 2.46866 (Simulation time: 18 hr 47 min 35 sec) 
 Total Blocks : 262144 Invalid Blocks : 0
Heartbeat CPU 5 instructions: 170000002 cycles: 68863178 heartbeat IPC: 2.46929 cumulative IPC: 2.46866 (Simulation time: 18 hr 47 min 35 sec) 
 Total Blocks : 262144 Invalid Blocks : 0
Heartbeat CPU 6 instructions: 170000002 cycles: 68863211 heartbeat IPC: 2.46929 cumulative IPC: 2.46866 (Simulation time: 18 hr 47 min 35 sec) 
 Total Blocks : 262144 Invalid Blocks : 0
Heartbeat CPU 7 instructions: 170000002 cycles: 68863257 heartbeat IPC: 2.46929 cumulative IPC: 2.46866 (Simulation time: 18 hr 47 min 35 sec) 
 Total Blocks : 262144 Invalid Blocks : 0
Heartbeat CPU 0 instructions: 180000000 cycles: 72911490 heartbeat IPC: 2.47004 cumulative IPC: 2.46875 (Simulation time: 20 hr 24 min 58 sec) 
 Total Blocks : 262144 Invalid Blocks : 0
Heartbeat CPU 1 instructions: 180000000 cycles: 72911531 heartbeat IPC: 2.47004 cumulative IPC: 2.46875 (Simulation time: 20 hr 24 min 58 sec) 
 Total Blocks : 262144 Invalid Blocks : 0
Heartbeat CPU 4 instructions: 180000000 cycles: 72911576 heartbeat IPC: 2.47003 cumulative IPC: 2.46874 (Simulation time: 20 hr 24 min 58 sec) 
 Total Blocks : 262144 Invalid Blocks : 0
Heartbeat CPU 2 instructions: 180000000 cycles: 72911626 heartbeat IPC: 2.47003 cumulative IPC: 2.46874 (Simulation time: 20 hr 24 min 58 sec) 
 Total Blocks : 262144 Invalid Blocks : 0
Heartbeat CPU 3 instructions: 180000000 cycles: 72911668 heartbeat IPC: 2.47004 cumulative IPC: 2.46874 (Simulation time: 20 hr 24 min 58 sec) 
 Total Blocks : 262144 Invalid Blocks : 0
Heartbeat CPU 5 instructions: 180000000 cycles: 72911714 heartbeat IPC: 2.47003 cumulative IPC: 2.46874 (Simulation time: 20 hr 24 min 58 sec) 
 Total Blocks : 262144 Invalid Blocks : 0
Heartbeat CPU 6 instructions: 180000000 cycles: 72911743 heartbeat IPC: 2.47003 cumulative IPC: 2.46874 (Simulation time: 20 hr 24 min 58 sec) 
 Total Blocks : 262144 Invalid Blocks : 0
Heartbeat CPU 7 instructions: 180000000 cycles: 72911798 heartbeat IPC: 2.47003 cumulative IPC: 2.46874 (Simulation time: 20 hr 24 min 58 sec) 
 Total Blocks : 262144 Invalid Blocks : 0
Heartbeat CPU 0 instructions: 190000003 cycles: 76957322 heartbeat IPC: 2.47168 cumulative IPC: 2.4689 (Simulation time: 22 hr 10 min 35 sec) 
 Total Blocks : 262144 Invalid Blocks : 0
Heartbeat CPU 1 instructions: 190000003 cycles: 76957364 heartbeat IPC: 2.47168 cumulative IPC: 2.4689 (Simulation time: 22 hr 10 min 35 sec) 
 Total Blocks : 262144 Invalid Blocks : 0
Heartbeat CPU 4 instructions: 190000003 cycles: 76957414 heartbeat IPC: 2.47168 cumulative IPC: 2.4689 (Simulation time: 22 hr 10 min 35 sec) 
 Total Blocks : 262144 Invalid Blocks : 0
Heartbeat CPU 2 instructions: 190000003 cycles: 76957466 heartbeat IPC: 2.47168 cumulative IPC: 2.4689 (Simulation time: 22 hr 10 min 35 sec) 
 Total Blocks : 262144 Invalid Blocks : 0
Heartbeat CPU 3 instructions: 190000003 cycles: 76957503 heartbeat IPC: 2.47168 cumulative IPC: 2.4689 (Simulation time: 22 hr 10 min 35 sec) 
 Total Blocks : 262144 Invalid Blocks : 0
Heartbeat CPU 5 instructions: 190000003 cycles: 76957558 heartbeat IPC: 2.47167 cumulative IPC: 2.46889 (Simulation time: 22 hr 10 min 35 sec) 
 Total Blocks : 262144 Invalid Blocks : 0
Heartbeat CPU 6 instructions: 190000003 cycles: 76957605 heartbeat IPC: 2.47166 cumulative IPC: 2.46889 (Simulation time: 22 hr 10 min 35 sec) 
 Total Blocks : 262144 Invalid Blocks : 0
Heartbeat CPU 7 instructions: 190000003 cycles: 76957641 heartbeat IPC: 2.47167 cumulative IPC: 2.46889 (Simulation time: 22 hr 10 min 35 sec) 
 Total Blocks : 262144 Invalid Blocks : 0
Heartbeat CPU 0 instructions: 200000002 cycles: 81002495 heartbeat IPC: 2.47208 cumulative IPC: 2.46906 (Simulation time: 24 hr 2 min 26 sec) 
 Total Blocks : 262144 Invalid Blocks : 0
Heartbeat CPU 1 instructions: 200000002 cycles: 81002537 heartbeat IPC: 2.47208 cumulative IPC: 2.46906 (Simulation time: 24 hr 2 min 26 sec) 
 Total Blocks : 262144 Invalid Blocks : 0
Heartbeat CPU 4 instructions: 200000002 cycles: 81002591 heartbeat IPC: 2.47208 cumulative IPC: 2.46906 (Simulation time: 24 hr 2 min 26 sec) 
 Total Blocks : 262144 Invalid Blocks : 0
Heartbeat CPU 2 instructions: 200000002 cycles: 81002646 heartbeat IPC: 2.47208 cumulative IPC: 2.46906 (Simulation time: 24 hr 2 min 26 sec) 
 Total Blocks : 262144 Invalid Blocks : 0
Heartbeat CPU 3 instructions: 200000002 cycles: 81002679 heartbeat IPC: 2.47208 cumulative IPC: 2.46905 (Simulation time: 24 hr 2 min 26 sec) 
 Total Blocks : 262144 Invalid Blocks : 0
Heartbeat CPU 5 instructions: 200000002 cycles: 81002738 heartbeat IPC: 2.47208 cumulative IPC: 2.46905 (Simulation time: 24 hr 2 min 26 sec) 
 Total Blocks : 262144 Invalid Blocks : 0
Heartbeat CPU 6 instructions: 200000002 cycles: 81002779 heartbeat IPC: 2.47208 cumulative IPC: 2.46905 (Simulation time: 24 hr 2 min 26 sec) 
 Total Blocks : 262144 Invalid Blocks : 0
Heartbeat CPU 7 instructions: 200000002 cycles: 81002832 heartbeat IPC: 2.47207 cumulative IPC: 2.46905 (Simulation time: 24 hr 2 min 26 sec) 
 Total Blocks : 262144 Invalid Blocks : 0

Warmup complete CPU 0 instructions: 200000775 cycles: 81002832 (Simulation time: 24 hr 2 min 26 sec) 
Warmup complete CPU 1 instructions: 200000746 cycles: 81002832 (Simulation time: 24 hr 2 min 26 sec) 
Warmup complete CPU 2 instructions: 200000429 cycles: 81002832 (Simulation time: 24 hr 2 min 26 sec) 
Warmup complete CPU 3 instructions: 200000411 cycles: 81002832 (Simulation time: 24 hr 2 min 26 sec) 
Warmup complete CPU 4 instructions: 200000571 cycles: 81002832 (Simulation time: 24 hr 2 min 26 sec) 
Warmup complete CPU 5 instructions: 200000225 cycles: 81002832 (Simulation time: 24 hr 2 min 26 sec) 
Warmup complete CPU 6 instructions: 200000074 cycles: 81002832 (Simulation time: 24 hr 2 min 26 sec) 
Warmup complete CPU 7 instructions: 200000002 cycles: 81002832 (Simulation time: 24 hr 2 min 26 sec) 

Heartbeat CPU 0 instructions: 210000003 cycles: 96922048 heartbeat IPC: 0.628158 cumulative IPC: 0.628123 (Simulation time: 26 hr 11 min 55 sec) 
 Total Blocks : 262144 Invalid Blocks : 0
Heartbeat CPU 2 instructions: 210000003 cycles: 96924125 heartbeat IPC: 0.628082 cumulative IPC: 0.628063 (Simulation time: 26 hr 11 min 56 sec) 
 Total Blocks : 262144 Invalid Blocks : 0
Heartbeat CPU 5 instructions: 210000003 cycles: 96952197 heartbeat IPC: 0.626981 cumulative IPC: 0.62697 (Simulation time: 26 hr 12 min 4 sec) 
 Total Blocks : 262144 Invalid Blocks : 0
Heartbeat CPU 6 instructions: 210000003 cycles: 96964277 heartbeat IPC: 0.626508 cumulative IPC: 0.626505 (Simulation time: 26 hr 12 min 10 sec) 
 Total Blocks : 262144 Invalid Blocks : 0
Heartbeat CPU 3 instructions: 210000003 cycles: 97093415 heartbeat IPC: 0.621476 cumulative IPC: 0.621456 (Simulation time: 26 hr 13 min 1 sec) 
 Total Blocks : 262144 Invalid Blocks : 0
Heartbeat CPU 1 instructions: 210000003 cycles: 97132813 heartbeat IPC: 0.619952 cumulative IPC: 0.619917 (Simulation time: 26 hr 13 min 16 sec) 
 Total Blocks : 262144 Invalid Blocks : 0
Heartbeat CPU 7 instructions: 210000003 cycles: 97401325 heartbeat IPC: 0.609812 cumulative IPC: 0.609812 (Simulation time: 26 hr 15 min 2 sec) 
 Total Blocks : 262144 Invalid Blocks : 0
Heartbeat CPU 4 instructions: 210000003 cycles: 97544390 heartbeat IPC: 0.604529 cumulative IPC: 0.604504 (Simulation time: 26 hr 16 min 0 sec) 
 Total Blocks : 262144 Invalid Blocks : 0
Heartbeat CPU 6 instructions: 220000000 cycles: 113262837 heartbeat IPC: 0.613551 cumulative IPC: 0.61996 (Simulation time: 28 hr 0 min 22 sec) 
 Total Blocks : 262144 Invalid Blocks : 0
Heartbeat CPU 2 instructions: 220000000 cycles: 113300999 heartbeat IPC: 0.610617 cumulative IPC: 0.619217 (Simulation time: 28 hr 0 min 36 sec) 
 Total Blocks : 262144 Invalid Blocks : 0
Heartbeat CPU 5 instructions: 220000000 cycles: 113329907 heartbeat IPC: 0.610586 cumulative IPC: 0.61867 (Simulation time: 28 hr 0 min 49 sec) 
 Total Blocks : 262144 Invalid Blocks : 0
Heartbeat CPU 0 instructions: 220000000 cycles: 113357095 heartbeat IPC: 0.608456 cumulative IPC: 0.618133 (Simulation time: 28 hr 1 min 0 sec) 
 Total Blocks : 262144 Invalid Blocks : 0
Heartbeat CPU 3 instructions: 220000000 cycles: 113430693 heartbeat IPC: 0.612097 cumulative IPC: 0.616741 (Simulation time: 28 hr 1 min 28 sec) 
 Total Blocks : 262144 Invalid Blocks : 0
Heartbeat CPU 1 instructions: 220000000 cycles: 113585912 heartbeat IPC: 0.607788 cumulative IPC: 0.613793 (Simulation time: 28 hr 2 min 32 sec) 
 Total Blocks : 262144 Invalid Blocks : 0
Heartbeat CPU 7 instructions: 220000000 cycles: 114018534 heartbeat IPC: 0.601786 cumulative IPC: 0.605772 (Simulation time: 28 hr 5 min 29 sec) 
 Total Blocks : 262144 Invalid Blocks : 0
Heartbeat CPU 4 instructions: 220000000 cycles: 114314774 heartbeat IPC: 0.596289 cumulative IPC: 0.600368 (Simulation time: 28 hr 7 min 28 sec) 
 Total Blocks : 262144 Invalid Blocks : 0
Heartbeat CPU 6 instructions: 230000000 cycles: 129490607 heartbeat IPC: 0.616228 cumulative IPC: 0.618711 (Simulation time: 29 hr 51 min 34 sec) 
 Total Blocks : 262144 Invalid Blocks : 0
Heartbeat CPU 5 instructions: 230000000 cycles: 129521179 heartbeat IPC: 0.617617 cumulative IPC: 0.618318 (Simulation time: 29 hr 51 min 46 sec) 
 Total Blocks : 262144 Invalid Blocks : 0
Heartbeat CPU 2 instructions: 230000000 cycles: 129648447 heartbeat IPC: 0.611716 cumulative IPC: 0.616696 (Simulation time: 29 hr 52 min 38 sec) 
 Total Blocks : 262144 Invalid Blocks : 0
Heartbeat CPU 3 instructions: 230000000 cycles: 129784628 heartbeat IPC: 0.611474 cumulative IPC: 0.614975 (Simulation time: 29 hr 53 min 37 sec) 
 Total Blocks : 262144 Invalid Blocks : 0
Heartbeat CPU 0 instructions: 230000000 cycles: 129869931 heartbeat IPC: 0.60559 cumulative IPC: 0.613894 (Simulation time: 29 hr 54 min 16 sec) 
 Total Blocks : 262144 Invalid Blocks : 0
Heartbeat CPU 1 instructions: 230000000 cycles: 130149569 heartbeat IPC: 0.603731 cumulative IPC: 0.610402 (Simulation time: 29 hr 56 min 12 sec) 
 Total Blocks : 262144 Invalid Blocks : 0
Heartbeat CPU 7 instructions: 230000000 cycles: 130487575 heartbeat IPC: 0.6072 cumulative IPC: 0.606247 (Simulation time: 29 hr 58 min 36 sec) 
 Total Blocks : 262144 Invalid Blocks : 0
Heartbeat CPU 4 instructions: 230000000 cycles: 130890086 heartbeat IPC: 0.603307 cumulative IPC: 0.601345 (Simulation time: 30 hr 1 min 25 sec) 
 Total Blocks : 262144 Invalid Blocks : 0
Heartbeat CPU 6 instructions: 240000001 cycles: 145878042 heartbeat IPC: 0.610224 cumulative IPC: 0.616567 (Simulation time: 31 hr 48 min 49 sec) 
 Total Blocks : 262144 Invalid Blocks : 0
Heartbeat CPU 5 instructions: 240000001 cycles: 145885310 heartbeat IPC: 0.611093 cumulative IPC: 0.616496 (Simulation time: 31 hr 48 min 52 sec) 
 Total Blocks : 262144 Invalid Blocks : 0
Heartbeat CPU 2 instructions: 240000001 cycles: 145972959 heartbeat IPC: 0.612576 cumulative IPC: 0.615661 (Simulation time: 31 hr 49 min 33 sec) 
 Total Blocks : 262144 Invalid Blocks : 0
Heartbeat CPU 3 instructions: 240000001 cycles: 146323846 heartbeat IPC: 0.604624 cumulative IPC: 0.612354 (Simulation time: 31 hr 52 min 7 sec) 
 Total Blocks : 262144 Invalid Blocks : 0
Heartbeat CPU 0 instructions: 240000001 cycles: 146348045 heartbeat IPC: 0.606866 cumulative IPC: 0.612122 (Simulation time: 31 hr 52 min 17 sec) 
 Total Blocks : 262144 Invalid Blocks : 0
Heartbeat CPU 1 instructions: 240000001 cycles: 146419565 heartbeat IPC: 0.614628 cumulative IPC: 0.611453 (Simulation time: 31 hr 52 min 51 sec) 
 Total Blocks : 262144 Invalid Blocks : 0
Heartbeat CPU 7 instructions: 240000001 cycles: 146708107 heartbeat IPC: 0.616503 cumulative IPC: 0.608779 (Simulation time: 31 hr 54 min 55 sec) 
 Total Blocks : 262144 Invalid Blocks : 0
Heartbeat CPU 4 instructions: 240000001 cycles: 147603594 heartbeat IPC: 0.598319 cumulative IPC: 0.600585 (Simulation time: 32 hr 1 min 30 sec) 
 Total Blocks : 262144 Invalid Blocks : 0
Heartbeat CPU 6 instructions: 250000000 cycles: 162132999 heartbeat IPC: 0.615197 cumulative IPC: 0.616293 (Simulation time: 33 hr 49 min 19 sec) 
 Total Blocks : 262144 Invalid Blocks : 0
Heartbeat CPU 5 instructions: 250000000 cycles: 162161575 heartbeat IPC: 0.614392 cumulative IPC: 0.616074 (Simulation time: 33 hr 49 min 31 sec) 
 Total Blocks : 262144 Invalid Blocks : 0
Heartbeat CPU 2 instructions: 250000000 cycles: 162310341 heartbeat IPC: 0.612093 cumulative IPC: 0.614944 (Simulation time: 33 hr 50 min 39 sec) 
 Total Blocks : 262144 Invalid Blocks : 0
Heartbeat CPU 1 instructions: 250000000 cycles: 162609479 heartbeat IPC: 0.617668 cumulative IPC: 0.612686 (Simulation time: 33 hr 52 min 53 sec) 
 Total Blocks : 262144 Invalid Blocks : 0
Heartbeat CPU 0 instructions: 250000000 cycles: 162859757 heartbeat IPC: 0.605631 cumulative IPC: 0.610812 (Simulation time: 33 hr 54 min 45 sec) 
 Total Blocks : 262144 Invalid Blocks : 0
Heartbeat CPU 3 instructions: 250000000 cycles: 162869680 heartbeat IPC: 0.604382 cumulative IPC: 0.610743 (Simulation time: 33 hr 54 min 50 sec) 
 Total Blocks : 262144 Invalid Blocks : 0
Heartbeat CPU 7 instructions: 250000000 cycles: 162960481 heartbeat IPC: 0.615295 cumulative IPC: 0.610071 (Simulation time: 33 hr 55 min 32 sec) 
 Total Blocks : 262144 Invalid Blocks : 0
Heartbeat CPU 4 instructions: 250000000 cycles: 164275680 heartbeat IPC: 0.599805 cumulative IPC: 0.600429 (Simulation time: 34 hr 5 min 26 sec) 
 Total Blocks : 262144 Invalid Blocks : 0
Heartbeat CPU 6 instructions: 260000001 cycles: 178422724 heartbeat IPC: 0.613884 cumulative IPC: 0.61589 (Simulation time: 36 hr 30 min 15 sec) 
 Total Blocks : 262144 Invalid Blocks : 0
Heartbeat CPU 5 instructions: 260000001 cycles: 178591082 heartbeat IPC: 0.608661 cumulative IPC: 0.614826 (Simulation time: 36 hr 32 min 7 sec) 
 Total Blocks : 262144 Invalid Blocks : 0
Heartbeat CPU 2 instructions: 260000001 cycles: 178784695 heartbeat IPC: 0.607004 cumulative IPC: 0.613606 (Simulation time: 36 hr 34 min 14 sec) 
 Total Blocks : 262144 Invalid Blocks : 0
Heartbeat CPU 1 instructions: 260000001 cycles: 178977251 heartbeat IPC: 0.610957 cumulative IPC: 0.612397 (Simulation time: 36 hr 36 min 23 sec) 
 Total Blocks : 262144 Invalid Blocks : 0
Heartbeat CPU 7 instructions: 260000001 cycles: 179286709 heartbeat IPC: 0.612511 cumulative IPC: 0.610476 (Simulation time: 36 hr 40 min 3 sec) 
 Total Blocks : 262144 Invalid Blocks : 0
Heartbeat CPU 0 instructions: 260000001 cycles: 179319004 heartbeat IPC: 0.607561 cumulative IPC: 0.610268 (Simulation time: 36 hr 40 min 26 sec) 
 Total Blocks : 262144 Invalid Blocks : 0
Heartbeat CPU 3 instructions: 260000001 cycles: 179356706 heartbeat IPC: 0.606538 cumulative IPC: 0.610038 (Simulation time: 36 hr 40 min 55 sec) 
 Total Blocks : 262144 Invalid Blocks : 0
Heartbeat CPU 4 instructions: 260000001 cycles: 180944339 heartbeat IPC: 0.599928 cumulative IPC: 0.600345 (Simulation time: 36 hr 58 min 37 sec) 
 Total Blocks : 262144 Invalid Blocks : 0
Heartbeat CPU 6 instructions: 270000000 cycles: 194697525 heartbeat IPC: 0.614447 cumulative IPC: 0.615683 (Simulation time: 39 hr 30 min 51 sec) 
 Total Blocks : 262144 Invalid Blocks : 0
Heartbeat CPU 5 instructions: 270000000 cycles: 195070889 heartbeat IPC: 0.606803 cumulative IPC: 0.613667 (Simulation time: 39 hr 34 min 46 sec) 
 Total Blocks : 262144 Invalid Blocks : 0
Heartbeat CPU 2 instructions: 270000000 cycles: 195144829 heartbeat IPC: 0.611242 cumulative IPC: 0.613267 (Simulation time: 39 hr 35 min 36 sec) 
 Total Blocks : 262144 Invalid Blocks : 0
Heartbeat CPU 1 instructions: 270000000 cycles: 195176416 heartbeat IPC: 0.617316 cumulative IPC: 0.613095 (Simulation time: 39 hr 35 min 55 sec) 
 Total Blocks : 262144 Invalid Blocks : 0
Heartbeat CPU 7 instructions: 270000000 cycles: 195648441 heartbeat IPC: 0.611182 cumulative IPC: 0.610577 (Simulation time: 39 hr 40 min 59 sec) 
 Total Blocks : 262144 Invalid Blocks : 0
Heartbeat CPU 0 instructions: 270000000 cycles: 195764620 heartbeat IPC: 0.608065 cumulative IPC: 0.609952 (Simulation time: 39 hr 42 min 16 sec) 
 Total Blocks : 262144 Invalid Blocks : 0
Heartbeat CPU 3 instructions: 270000000 cycles: 195827610 heartbeat IPC: 0.607131 cumulative IPC: 0.609621 (Simulation time: 39 hr 42 min 55 sec) 
 Total Blocks : 262144 Invalid Blocks : 0
Heartbeat CPU 4 instructions: 270000000 cycles: 197533300 heartbeat IPC: 0.60281 cumulative IPC: 0.600696 (Simulation time: 40 hr 0 min 46 sec) 
 Total Blocks : 262144 Invalid Blocks : 0
Heartbeat CPU 6 instructions: 280000000 cycles: 210966009 heartbeat IPC: 0.614685 cumulative IPC: 0.615558 (Simulation time: 42 hr 26 min 41 sec) 
 Total Blocks : 262144 Invalid Blocks : 0
Heartbeat CPU 5 instructions: 280000000 cycles: 211264448 heartbeat IPC: 0.617529 cumulative IPC: 0.614147 (Simulation time: 42 hr 29 min 45 sec) 
 Total Blocks : 262144 Invalid Blocks : 0
Heartbeat CPU 2 instructions: 280000000 cycles: 211316407 heartbeat IPC: 0.618369 cumulative IPC: 0.613901 (Simulation time: 42 hr 30 min 21 sec) 
 Total Blocks : 262144 Invalid Blocks : 0
Heartbeat CPU 1 instructions: 280000000 cycles: 211540729 heartbeat IPC: 0.611086 cumulative IPC: 0.612843 (Simulation time: 42 hr 32 min 55 sec) 
 Total Blocks : 262144 Invalid Blocks : 0
Heartbeat CPU 0 instructions: 280000000 cycles: 211891308 heartbeat IPC: 0.62009 cumulative IPC: 0.611201 (Simulation time: 42 hr 36 min 56 sec) 
 Total Blocks : 262144 Invalid Blocks : 0
Heartbeat CPU 7 instructions: 280000000 cycles: 211953643 heartbeat IPC: 0.613301 cumulative IPC: 0.610916 (Simulation time: 42 hr 37 min 36 sec) 
 Total Blocks : 262144 Invalid Blocks : 0
Heartbeat CPU 3 instructions: 280000000 cycles: 212403243 heartbeat IPC: 0.603295 cumulative IPC: 0.608823 (Simulation time: 42 hr 42 min 20 sec) 
 Total Blocks : 262144 Invalid Blocks : 0
Heartbeat CPU 4 instructions: 280000000 cycles: 214241711 heartbeat IPC: 0.598501 cumulative IPC: 0.600421 (Simulation time: 43 hr 2 min 13 sec) 
 Total Blocks : 262144 Invalid Blocks : 0
Heartbeat CPU 6 instructions: 290000001 cycles: 227115525 heartbeat IPC: 0.619214 cumulative IPC: 0.615962 (Simulation time: 45 hr 23 min 57 sec) 
 Total Blocks : 262144 Invalid Blocks : 0
Heartbeat CPU 5 instructions: 290000001 cycles: 227514615 heartbeat IPC: 0.615378 cumulative IPC: 0.614284 (Simulation time: 45 hr 28 min 22 sec) 
 Total Blocks : 262144 Invalid Blocks : 0
Heartbeat CPU 2 instructions: 290000001 cycles: 227567395 heartbeat IPC: 0.615347 cumulative IPC: 0.614061 (Simulation time: 45 hr 28 min 57 sec) 
 Total Blocks : 262144 Invalid Blocks : 0
Heartbeat CPU 1 instructions: 290000001 cycles: 227978094 heartbeat IPC: 0.60837 cumulative IPC: 0.612343 (Simulation time: 45 hr 33 min 29 sec) 
 Total Blocks : 262144 Invalid Blocks : 0
Heartbeat CPU 0 instructions: 290000001 cycles: 228326510 heartbeat IPC: 0.60845 cumulative IPC: 0.610895 (Simulation time: 45 hr 37 min 15 sec) 
 Total Blocks : 262144 Invalid Blocks : 0
Heartbeat CPU 7 instructions: 290000001 cycles: 228640340 heartbeat IPC: 0.59928 cumulative IPC: 0.609601 (Simulation time: 45 hr 40 min 42 sec) 
 Total Blocks : 262144 Invalid Blocks : 0
Heartbeat CPU 3 instructions: 290000001 cycles: 228955974 heartbeat IPC: 0.60413 cumulative IPC: 0.608298 (Simulation time: 45 hr 44 min 9 sec) 
 Total Blocks : 262144 Invalid Blocks : 0
Heartbeat CPU 4 instructions: 290000001 cycles: 230749868 heartbeat IPC: 0.605761 cumulative IPC: 0.60101 (Simulation time: 46 hr 4 min 15 sec) 
 Total Blocks : 262144 Invalid Blocks : 0
Heartbeat CPU 6 instructions: 300000000 cycles: 243553316 heartbeat IPC: 0.608354 cumulative IPC: 0.615193 (Simulation time: 48 hr 29 min 25 sec) 
 Total Blocks : 262144 Invalid Blocks : 0
Heartbeat CPU 5 instructions: 300000000 cycles: 243792720 heartbeat IPC: 0.614322 cumulative IPC: 0.614287 (Simulation time: 48 hr 32 min 12 sec) 
 Total Blocks : 262144 Invalid Blocks : 0
Heartbeat CPU 2 instructions: 300000000 cycles: 243931242 heartbeat IPC: 0.611103 cumulative IPC: 0.613764 (Simulation time: 48 hr 33 min 53 sec) 
 Total Blocks : 262144 Invalid Blocks : 0
Heartbeat CPU 1 instructions: 300000001 cycles: 244350413 heartbeat IPC: 0.610787 cumulative IPC: 0.612187 (Simulation time: 48 hr 38 min 31 sec) 
 Total Blocks : 262144 Invalid Blocks : 0
Heartbeat CPU 0 instructions: 300000000 cycles: 244805747 heartbeat IPC: 0.606824 cumulative IPC: 0.610485 (Simulation time: 48 hr 43 min 32 sec) 
 Total Blocks : 262144 Invalid Blocks : 0
Heartbeat CPU 7 instructions: 300000000 cycles: 245173381 heartbeat IPC: 0.604849 cumulative IPC: 0.609123 (Simulation time: 48 hr 47 min 39 sec) 
 Total Blocks : 262144 Invalid Blocks : 0
Heartbeat CPU 3 instructions: 300000000 cycles: 245440083 heartbeat IPC: 0.606645 cumulative IPC: 0.608132 (Simulation time: 48 hr 50 min 45 sec) 
 Total Blocks : 262144 Invalid Blocks : 0
Heartbeat CPU 4 instructions: 300000000 cycles: 247141866 heartbeat IPC: 0.610054 cumulative IPC: 0.601902 (Simulation time: 49 hr 10 min 50 sec) 
 Total Blocks : 262144 Invalid Blocks : 0
Heartbeat CPU 6 instructions: 310000001 cycles: 259920426 heartbeat IPC: 0.610981 cumulative IPC: 0.614808 (Simulation time: 51 hr 41 min 40 sec) 
 Total Blocks : 262144 Invalid Blocks : 0
Heartbeat CPU 5 instructions: 310000001 cycles: 260162351 heartbeat IPC: 0.610887 cumulative IPC: 0.613977 (Simulation time: 51 hr 44 min 23 sec) 
 Total Blocks : 262144 Invalid Blocks : 0
Heartbeat CPU 2 instructions: 310000001 cycles: 260248857 heartbeat IPC: 0.612835 cumulative IPC: 0.613679 (Simulation time: 51 hr 45 min 26 sec) 
 Total Blocks : 262144 Invalid Blocks : 0
Heartbeat CPU 1 instructions: 310000001 cycles: 260659248 heartbeat IPC: 0.613165 cumulative IPC: 0.612276 (Simulation time: 51 hr 50 min 24 sec) 
 Total Blocks : 262144 Invalid Blocks : 0
Heartbeat CPU 0 instructions: 310000001 cycles: 261445471 heartbeat IPC: 0.600972 cumulative IPC: 0.609608 (Simulation time: 51 hr 59 min 55 sec) 
 Total Blocks : 262144 Invalid Blocks : 0
Heartbeat CPU 7 instructions: 310000001 cycles: 261703939 heartbeat IPC: 0.60494 cumulative IPC: 0.60874 (Simulation time: 52 hr 3 min 4 sec) 
 Total Blocks : 262144 Invalid Blocks : 0
Heartbeat CPU 3 instructions: 310000001 cycles: 261872925 heartbeat IPC: 0.608538 cumulative IPC: 0.608169 (Simulation time: 52 hr 5 min 8 sec) 
 Total Blocks : 262144 Invalid Blocks : 0
Heartbeat CPU 4 instructions: 310000001 cycles: 263363553 heartbeat IPC: 0.616459 cumulative IPC: 0.603197 (Simulation time: 52 hr 21 min 27 sec) 
 Total Blocks : 262144 Invalid Blocks : 0
Heartbeat CPU 6 instructions: 320000001 cycles: 276392593 heartbeat IPC: 0.607085 cumulative IPC: 0.614157 (Simulation time: 54 hr 56 min 13 sec) 
 Total Blocks : 262144 Invalid Blocks : 0
Heartbeat CPU 5 instructions: 320000001 cycles: 276446019 heartbeat IPC: 0.614112 cumulative IPC: 0.613988 (Simulation time: 54 hr 56 min 54 sec) 
 Total Blocks : 262144 Invalid Blocks : 0
Heartbeat CPU 2 instructions: 320000001 cycles: 276535295 heartbeat IPC: 0.614008 cumulative IPC: 0.613707 (Simulation time: 54 hr 57 min 59 sec) 
 Total Blocks : 262144 Invalid Blocks : 0
Heartbeat CPU 1 instructions: 320000001 cycles: 276873019 heartbeat IPC: 0.61676 cumulative IPC: 0.612647 (Simulation time: 55 hr 2 min 1 sec) 
 Total Blocks : 262144 Invalid Blocks : 0
Heartbeat CPU 0 instructions: 320000001 cycles: 278102492 heartbeat IPC: 0.600347 cumulative IPC: 0.608825 (Simulation time: 55 hr 16 min 38 sec) 
 Total Blocks : 262144 Invalid Blocks : 0
Heartbeat CPU 7 instructions: 320000001 cycles: 278204732 heartbeat IPC: 0.606031 cumulative IPC: 0.608513 (Simulation time: 55 hr 17 min 50 sec) 
 Total Blocks : 262144 Invalid Blocks : 0
Heartbeat CPU 3 instructions: 320000001 cycles: 278225176 heartbeat IPC: 0.611537 cumulative IPC: 0.608448 (Simulation time: 55 hr 18 min 6 sec) 
 Total Blocks : 262144 Invalid Blocks : 0
Heartbeat CPU 4 instructions: 320000001 cycles: 279663681 heartbeat IPC: 0.613492 cumulative IPC: 0.604042 (Simulation time: 55 hr 35 min 10 sec) 
 Total Blocks : 262144 Invalid Blocks : 0
Heartbeat CPU 5 instructions: 330000000 cycles: 292685064 heartbeat IPC: 0.6158 cumulative IPC: 0.614127 (Simulation time: 58 hr 10 min 28 sec) 
 Total Blocks : 262144 Invalid Blocks : 0
Heartbeat CPU 6 instructions: 330000000 cycles: 292953700 heartbeat IPC: 0.603824 cumulative IPC: 0.613349 (Simulation time: 58 hr 13 min 35 sec) 
 Total Blocks : 262144 Invalid Blocks : 0
Heartbeat CPU 2 instructions: 330000000 cycles: 292971062 heartbeat IPC: 0.608429 cumulative IPC: 0.613297 (Simulation time: 58 hr 13 min 45 sec) 
 Total Blocks : 262144 Invalid Blocks : 0
Heartbeat CPU 1 instructions: 330000000 cycles: 293199453 heartbeat IPC: 0.612504 cumulative IPC: 0.612636 (Simulation time: 58 hr 16 min 43 sec) 
 Total Blocks : 262144 Invalid Blocks : 0
Heartbeat CPU 0 instructions: 330000000 cycles: 294585097 heartbeat IPC: 0.6067 cumulative IPC: 0.608661 (Simulation time: 58 hr 33 min 40 sec) 
 Total Blocks : 262144 Invalid Blocks : 0
Heartbeat CPU 3 instructions: 330000000 cycles: 294651876 heartbeat IPC: 0.608765 cumulative IPC: 0.608473 (Simulation time: 58 hr 34 min 27 sec) 
 Total Blocks : 262144 Invalid Blocks : 0
Heartbeat CPU 7 instructions: 330000000 cycles: 294792113 heartbeat IPC: 0.602868 cumulative IPC: 0.608075 (Simulation time: 58 hr 36 min 13 sec) 
 Total Blocks : 262144 Invalid Blocks : 0
Heartbeat CPU 4 instructions: 330000000 cycles: 295939161 heartbeat IPC: 0.614421 cumulative IPC: 0.604828 (Simulation time: 58 hr 50 min 17 sec) 
 Total Blocks : 262144 Invalid Blocks : 0
Heartbeat CPU 5 instructions: 340000002 cycles: 309007430 heartbeat IPC: 0.612656 cumulative IPC: 0.614022 (Simulation time: 61 hr 18 min 46 sec) 
 Total Blocks : 262144 Invalid Blocks : 0
Heartbeat CPU 2 instructions: 340000002 cycles: 309360326 heartbeat IPC: 0.610156 cumulative IPC: 0.613072 (Simulation time: 61 hr 22 min 17 sec) 
 Total Blocks : 262144 Invalid Blocks : 0
Heartbeat CPU 6 instructions: 340000002 cycles: 309472079 heartbeat IPC: 0.605386 cumulative IPC: 0.612774 (Simulation time: 61 hr 23 min 24 sec) 
 Total Blocks : 262144 Invalid Blocks : 0
Heartbeat CPU 1 instructions: 340000002 cycles: 309600445 heartbeat IPC: 0.609719 cumulative IPC: 0.612427 (Simulation time: 61 hr 24 min 42 sec) 
 Total Blocks : 262144 Invalid Blocks : 0
Heartbeat CPU 0 instructions: 340000002 cycles: 310944670 heartbeat IPC: 0.611263 cumulative IPC: 0.608846 (Simulation time: 61 hr 37 min 55 sec) 
 Total Blocks : 262144 Invalid Blocks : 0
Heartbeat CPU 3 instructions: 340000002 cycles: 311025564 heartbeat IPC: 0.610736 cumulative IPC: 0.608634 (Simulation time: 61 hr 38 min 46 sec) 
 Total Blocks : 262144 Invalid Blocks : 0
Heartbeat CPU 7 instructions: 340000002 cycles: 311118848 heartbeat IPC: 0.612492 cumulative IPC: 0.608389 (Simulation time: 61 hr 39 min 44 sec) 
 Total Blocks : 262144 Invalid Blocks : 0
Heartbeat CPU 4 instructions: 340000002 cycles: 312333937 heartbeat IPC: 0.60995 cumulative IPC: 0.605191 (Simulation time: 61 hr 51 min 42 sec) 
 Total Blocks : 262144 Invalid Blocks : 0
Heartbeat CPU 5 instructions: 350000000 cycles: 325257100 heartbeat IPC: 0.615397 cumulative IPC: 0.614113 (Simulation time: 64 hr 23 min 30 sec) 
 Total Blocks : 262144 Invalid Blocks : 0
Heartbeat CPU 2 instructions: 350000000 cycles: 325523063 heartbeat IPC: 0.618707 cumulative IPC: 0.613444 (Simulation time: 64 hr 27 min 0 sec) 
 Total Blocks : 262144 Invalid Blocks : 0
Heartbeat CPU 1 instructions: 350000000 cycles: 325896389 heartbeat IPC: 0.613649 cumulative IPC: 0.612508 (Simulation time: 64 hr 32 min 2 sec) 
 Total Blocks : 262144 Invalid Blocks : 0
Heartbeat CPU 6 instructions: 350000000 cycles: 326029072 heartbeat IPC: 0.603974 cumulative IPC: 0.612179 (Simulation time: 64 hr 33 min 46 sec) 
 Total Blocks : 262144 Invalid Blocks : 0
Heartbeat CPU 0 instructions: 350000000 cycles: 327150335 heartbeat IPC: 0.617068 cumulative IPC: 0.609388 (Simulation time: 64 hr 48 min 50 sec) 
 Total Blocks : 262144 Invalid Blocks : 0
Heartbeat CPU 7 instructions: 350000000 cycles: 327402015 heartbeat IPC: 0.614131 cumulative IPC: 0.608768 (Simulation time: 64 hr 52 min 10 sec) 
 Total Blocks : 262144 Invalid Blocks : 0
Heartbeat CPU 3 instructions: 350000000 cycles: 327526175 heartbeat IPC: 0.606038 cumulative IPC: 0.60846 (Simulation time: 64 hr 53 min 46 sec) 
 Total Blocks : 262144 Invalid Blocks : 0
Heartbeat CPU 4 instructions: 350000000 cycles: 328637212 heartbeat IPC: 0.613374 cumulative IPC: 0.605729 (Simulation time: 65 hr 8 min 28 sec) 
 Total Blocks : 262144 Invalid Blocks : 0
Heartbeat CPU 5 instructions: 360000003 cycles: 341475575 heartbeat IPC: 0.616581 cumulative IPC: 0.614267 (Simulation time: 68 hr 2 min 25 sec) 
 Total Blocks : 262144 Invalid Blocks : 0
Heartbeat CPU 2 instructions: 360000003 cycles: 341871141 heartbeat IPC: 0.611693 cumulative IPC: 0.613335 (Simulation time: 68 hr 7 min 49 sec) 
 Total Blocks : 262144 Invalid Blocks : 0
Heartbeat CPU 1 instructions: 360000003 cycles: 342288411 heartbeat IPC: 0.610053 cumulative IPC: 0.612354 (Simulation time: 68 hr 13 min 35 sec) 
 Total Blocks : 262144 Invalid Blocks : 0
Heartbeat CPU 6 instructions: 360000003 cycles: 342549933 heartbeat IPC: 0.605296 cumulative IPC: 0.611744 (Simulation time: 68 hr 17 min 11 sec) 
 Total Blocks : 262144 Invalid Blocks : 0
Heartbeat CPU 0 instructions: 360000003 cycles: 343462749 heartbeat IPC: 0.61303 cumulative IPC: 0.609614 (Simulation time: 68 hr 29 min 51 sec) 
 Total Blocks : 262144 Invalid Blocks : 0
Heartbeat CPU 7 instructions: 360000003 cycles: 343631013 heartbeat IPC: 0.616181 cumulative IPC: 0.609226 (Simulation time: 68 hr 32 min 14 sec) 
 Total Blocks : 262144 Invalid Blocks : 0
Heartbeat CPU 3 instructions: 360000003 cycles: 344009680 heartbeat IPC: 0.606667 cumulative IPC: 0.608348 (Simulation time: 68 hr 37 min 17 sec) 
 Total Blocks : 262144 Invalid Blocks : 0
Heartbeat CPU 4 instructions: 360000003 cycles: 344946176 heartbeat IPC: 0.61316 cumulative IPC: 0.606189 (Simulation time: 68 hr 49 min 46 sec) 
 Total Blocks : 262144 Invalid Blocks : 0
Heartbeat CPU 5 instructions: 370000002 cycles: 357867243 heartbeat IPC: 0.610066 cumulative IPC: 0.614018 (Simulation time: 71 hr 48 min 0 sec) 
 Total Blocks : 262144 Invalid Blocks : 0
Heartbeat CPU 2 instructions: 370000002 cycles: 358318139 heartbeat IPC: 0.608014 cumulative IPC: 0.613019 (Simulation time: 71 hr 54 min 26 sec) 
 Total Blocks : 262144 Invalid Blocks : 0
Heartbeat CPU 1 instructions: 370000002 cycles: 358753704 heartbeat IPC: 0.607338 cumulative IPC: 0.612057 (Simulation time: 72 hr 0 min 28 sec) 
 Total Blocks : 262144 Invalid Blocks : 0
Heartbeat CPU 6 instructions: 370000002 cycles: 358846639 heartbeat IPC: 0.613621 cumulative IPC: 0.611854 (Simulation time: 72 hr 1 min 50 sec) 
 Total Blocks : 262144 Invalid Blocks : 0
Heartbeat CPU 0 instructions: 370000002 cycles: 359860215 heartbeat IPC: 0.60985 cumulative IPC: 0.609628 (Simulation time: 72 hr 13 min 3 sec) 
 Total Blocks : 262144 Invalid Blocks : 0
Heartbeat CPU 7 instructions: 370000002 cycles: 360008887 heartbeat IPC: 0.61058 cumulative IPC: 0.609306 (Simulation time: 72 hr 14 min 39 sec) 
 Total Blocks : 262144 Invalid Blocks : 0
Heartbeat CPU 3 instructions: 370000002 cycles: 360381063 heartbeat IPC: 0.610822 cumulative IPC: 0.608493 (Simulation time: 72 hr 18 min 43 sec) 
 Total Blocks : 262144 Invalid Blocks : 0
Heartbeat CPU 4 instructions: 370000002 cycles: 361330522 heartbeat IPC: 0.610339 cumulative IPC: 0.606431 (Simulation time: 72 hr 28 min 54 sec) 
 Total Blocks : 262144 Invalid Blocks : 0
Heartbeat CPU 5 instructions: 380000000 cycles: 374084098 heartbeat IPC: 0.616642 cumulative IPC: 0.614163 (Simulation time: 74 hr 46 min 21 sec) 
 Total Blocks : 262144 Invalid Blocks : 0
Heartbeat CPU 2 instructions: 380000000 cycles: 374769950 heartbeat IPC: 0.607836 cumulative IPC: 0.612729 (Simulation time: 74 hr 53 min 38 sec) 
 Total Blocks : 262144 Invalid Blocks : 0
Heartbeat CPU 6 instructions: 380000000 cycles: 375157383 heartbeat IPC: 0.613093 cumulative IPC: 0.611923 (Simulation time: 74 hr 57 min 53 sec) 
 Total Blocks : 262144 Invalid Blocks : 0
Heartbeat CPU 1 instructions: 380000000 cycles: 375217122 heartbeat IPC: 0.607407 cumulative IPC: 0.611796 (Simulation time: 74 hr 58 min 33 sec) 
 Total Blocks : 262144 Invalid Blocks : 0
Heartbeat CPU 0 instructions: 380000000 cycles: 376179163 heartbeat IPC: 0.612785 cumulative IPC: 0.609802 (Simulation time: 75 hr 8 min 52 sec) 
 Total Blocks : 262144 Invalid Blocks : 0
Heartbeat CPU 7 instructions: 380000000 cycles: 376218417 heartbeat IPC: 0.616921 cumulative IPC: 0.609724 (Simulation time: 75 hr 9 min 14 sec) 
 Total Blocks : 262144 Invalid Blocks : 0
Heartbeat CPU 3 instructions: 380000000 cycles: 376603530 heartbeat IPC: 0.616429 cumulative IPC: 0.608928 (Simulation time: 75 hr 13 min 26 sec) 
 Total Blocks : 262144 Invalid Blocks : 0
Heartbeat CPU 4 instructions: 380000000 cycles: 377588321 heartbeat IPC: 0.615089 cumulative IPC: 0.606906 (Simulation time: 75 hr 24 min 8 sec) 
 Total Blocks : 262144 Invalid Blocks : 0
Heartbeat CPU 5 instructions: 390000003 cycles: 390488754 heartbeat IPC: 0.609583 cumulative IPC: 0.613921 (Simulation time: 77 hr 45 min 0 sec) 
 Total Blocks : 262144 Invalid Blocks : 0
Heartbeat CPU 2 instructions: 390000003 cycles: 391176132 heartbeat IPC: 0.609527 cumulative IPC: 0.612559 (Simulation time: 77 hr 52 min 36 sec) 
 Total Blocks : 262144 Invalid Blocks : 0
Heartbeat CPU 6 instructions: 390000003 cycles: 391250060 heartbeat IPC: 0.621401 cumulative IPC: 0.612415 (Simulation time: 77 hr 53 min 27 sec) 
 Total Blocks : 262144 Invalid Blocks : 0
Heartbeat CPU 1 instructions: 390000003 cycles: 391549998 heartbeat IPC: 0.612262 cumulative IPC: 0.611821 (Simulation time: 77 hr 56 min 49 sec) 
 Total Blocks : 262144 Invalid Blocks : 0
Heartbeat CPU 7 instructions: 390000003 cycles: 392490403 heartbeat IPC: 0.614553 cumulative IPC: 0.609976 (Simulation time: 78 hr 7 min 7 sec) 
 Total Blocks : 262144 Invalid Blocks : 0
Heartbeat CPU 0 instructions: 390000003 cycles: 392574645 heartbeat IPC: 0.609924 cumulative IPC: 0.609809 (Simulation time: 78 hr 8 min 0 sec) 
 Total Blocks : 262144 Invalid Blocks : 0
Heartbeat CPU 3 instructions: 390000003 cycles: 392847321 heartbeat IPC: 0.61562 cumulative IPC: 0.609277 (Simulation time: 78 hr 10 min 56 sec) 
 Total Blocks : 262144 Invalid Blocks : 0
Heartbeat CPU 4 instructions: 390000003 cycles: 394066256 heartbeat IPC: 0.606872 cumulative IPC: 0.606904 (Simulation time: 78 hr 24 min 15 sec) 
 Total Blocks : 262144 Invalid Blocks : 0
Heartbeat CPU 5 instructions: 400000002 cycles: 406955417 heartbeat IPC: 0.607288 cumulative IPC: 0.613585 (Simulation time: 80 hr 47 min 11 sec) 
 Total Blocks : 262144 Invalid Blocks : 0
Finished CPU 5 instructions: 200000000 cycles: 325952721 cumulative IPC: 0.613586 (Simulation time: 80 hr 47 min 11 sec) 
Heartbeat CPU 2 instructions: 400000002 cycles: 407527058 heartbeat IPC: 0.611586 cumulative IPC: 0.612511 (Simulation time: 80 hr 53 min 39 sec) 
 Total Blocks : 262144 Invalid Blocks : 0
Finished CPU 2 instructions: 200000000 cycles: 326525497 cumulative IPC: 0.61251 (Simulation time: 80 hr 53 min 40 sec) 
Heartbeat CPU 6 instructions: 400000002 cycles: 407719311 heartbeat IPC: 0.607192 cumulative IPC: 0.612151 (Simulation time: 80 hr 55 min 48 sec) 
 Total Blocks : 262144 Invalid Blocks : 0
Finished CPU 6 instructions: 200000002 cycles: 326716507 cumulative IPC: 0.612152 (Simulation time: 80 hr 55 min 48 sec) 
Heartbeat CPU 1 instructions: 400000002 cycles: 407855308 heartbeat IPC: 0.613297 cumulative IPC: 0.611895 (Simulation time: 80 hr 57 min 21 sec) 
 Total Blocks : 262144 Invalid Blocks : 0
Finished CPU 1 instructions: 200000001 cycles: 326854319 cumulative IPC: 0.611893 (Simulation time: 80 hr 57 min 23 sec) 
Heartbeat CPU 0 instructions: 400000002 cycles: 408869330 heartbeat IPC: 0.613697 cumulative IPC: 0.610002 (Simulation time: 81 hr 8 min 39 sec) 
 Total Blocks : 262144 Invalid Blocks : 0
Finished CPU 0 instructions: 200000000 cycles: 327868494 cumulative IPC: 0.610001 (Simulation time: 81 hr 8 min 42 sec) 
Heartbeat CPU 7 instructions: 400000002 cycles: 408933112 heartbeat IPC: 0.608172 cumulative IPC: 0.609886 (Simulation time: 81 hr 9 min 28 sec) 
 Total Blocks : 262144 Invalid Blocks : 0
Finished CPU 7 instructions: 200000000 cycles: 327930280 cumulative IPC: 0.609886 (Simulation time: 81 hr 9 min 28 sec) 
Heartbeat CPU 3 instructions: 400000003 cycles: 409166245 heartbeat IPC: 0.612786 cumulative IPC: 0.609451 (Simulation time: 81 hr 12 min 7 sec) 
 Total Blocks : 262144 Invalid Blocks : 0
Finished CPU 3 instructions: 200000002 cycles: 328163627 cumulative IPC: 0.609452 (Simulation time: 81 hr 12 min 7 sec) 
Heartbeat CPU 4 instructions: 400000001 cycles: 410578279 heartbeat IPC: 0.605619 cumulative IPC: 0.60684 (Simulation time: 81 hr 27 min 52 sec) 
 Total Blocks : 262144 Invalid Blocks : 0
Finished CPU 4 instructions: 200000002 cycles: 329575804 cumulative IPC: 0.606841 (Simulation time: 81 hr 27 min 52 sec) 

CPU 0 Branch Prediction Accuracy: 99.1861% MPKI: 0.0561929 Average ROB Occupancy at Mispredict: 350.569

CPU 1 Branch Prediction Accuracy: 99.1861% MPKI: 0.0561913 Average ROB Occupancy at Mispredict: 350.57

CPU 2 Branch Prediction Accuracy: 99.1861% MPKI: 0.0561912 Average ROB Occupancy at Mispredict: 350.576

CPU 3 Branch Prediction Accuracy: 99.1861% MPKI: 0.0561885 Average ROB Occupancy at Mispredict: 350.57

CPU 4 Branch Prediction Accuracy: 99.1861% MPKI: 0.0561898 Average ROB Occupancy at Mispredict: 350.582

CPU 5 Branch Prediction Accuracy: 99.1861% MPKI: 0.0561925 Average ROB Occupancy at Mispredict: 350.571

CPU 6 Branch Prediction Accuracy: 99.1861% MPKI: 0.0561886 Average ROB Occupancy at Mispredict: 350.555

CPU 7 Branch Prediction Accuracy: 99.1861% MPKI: 0.0561892 Average ROB Occupancy at Mispredict: 350.585

ChampSim completed all CPUs

Total Simulation Statistics (not including warmup)

CPU 0 cumulative IPC: 0.610101 instructions: 201074473 cycles: 329575804
ITLB TOTAL     ACCESS: 32327993  HIT: 32327993  MISS:     0  HIT %:   100  MISS %:     0  AVERAGE MISS PENALTY: 0
ITLB LOAD      ACCESS: 32327993  HIT: 32327993  MISS:     0  HIT %:   100  MISS %:     0  AVERAGE MISS PENALTY: 0
ITLB RFO       ACCESS:     0  HIT:     0  MISS:     0  HIT %:     0  MISS %:     0  AVERAGE MISS PENALTY: 0
ITLB PREFETCH  ACCESS:     0  HIT:     0  MISS:     0  HIT %:     0  MISS %:     0  AVERAGE MISS PENALTY: 0
ITLB WRITEBACK ACCESS:     0  HIT:     0  MISS:     0  HIT %:     0  MISS %:     0  AVERAGE MISS PENALTY: 0

DTLB TOTAL     ACCESS: 54004694  HIT: 53930544  MISS: 74150  HIT %: 99.8627  MISS %: 0.137303  AVERAGE MISS PENALTY: 89.4165
DTLB LOAD      ACCESS: 47111898  HIT: 47040376  MISS: 71522  HIT %: 99.8482  MISS %: 0.151813  AVERAGE MISS PENALTY: 92.3553
DTLB RFO       ACCESS: 6892796  HIT: 6890168  MISS:  2628  HIT %: 99.9619  MISS %: 0.0381268  AVERAGE MISS PENALTY: 9.43645
DTLB PREFETCH  ACCESS:     0  HIT:     0  MISS:     0  HIT %:     0  MISS %:     0  AVERAGE MISS PENALTY: 0
DTLB WRITEBACK ACCESS:     0  HIT:     0  MISS:     0  HIT %:     0  MISS %:     0  AVERAGE MISS PENALTY: 0

STLB TOTAL     ACCESS: 74150  HIT: 19248  MISS: 54902  HIT %: 25.9582  MISS %: 74.0418  AVERAGE MISS PENALTY: 100
STLB LOAD      ACCESS: 71522  HIT: 16620  MISS: 54902  HIT %: 23.2376  MISS %: 76.7624  AVERAGE MISS PENALTY: 100
STLB RFO       ACCESS:  2628  HIT:  2628  MISS:     0  HIT %:   100  MISS %:     0  AVERAGE MISS PENALTY: 0
STLB PREFETCH  ACCESS:     0  HIT:     0  MISS:     0  HIT %:     0  MISS %:     0  AVERAGE MISS PENALTY: 0
STLB WRITEBACK ACCESS:     0  HIT:     0  MISS:     0  HIT %:     0  MISS %:     0  AVERAGE MISS PENALTY: 0

L1D TOTAL     ACCESS: 66908035  HIT: 63458225  MISS: 3449810  HIT %: 94.844  MISS %: 5.15605  AVERAGE MISS PENALTY: 1.75407e+07
L1D LOAD      ACCESS: 45323619  HIT: 44920125  MISS: 403494  HIT %: 99.1097  MISS %: 0.890251  AVERAGE MISS PENALTY: 1.49967e+08
L1D RFO       ACCESS: 9887295  HIT: 9887295  MISS:     0  HIT %:   100  MISS %:     0  AVERAGE MISS PENALTY: 0
L1D PREFETCH  ACCESS: 11697121  HIT: 8650805  MISS: 3046316  HIT %: 73.9567  MISS %: 26.0433  AVERAGE MISS PENALTY: 376.981
L1D WRITEBACK ACCESS:     0  HIT:     0  MISS:     0  HIT %:     0  MISS %:     0  AVERAGE MISS PENALTY: 0

L1I TOTAL     ACCESS: 41932054  HIT: 41932054  MISS:     0  HIT %:   100  MISS %:     0  AVERAGE MISS PENALTY: 0
L1I LOAD      ACCESS: 41932054  HIT: 41932054  MISS:     0  HIT %:   100  MISS %:     0  AVERAGE MISS PENALTY: 0
L1I RFO       ACCESS:     0  HIT:     0  MISS:     0  HIT %:     0  MISS %:     0  AVERAGE MISS PENALTY: 0
L1I PREFETCH  ACCESS:     0  HIT:     0  MISS:     0  HIT %:     0  MISS %:     0  AVERAGE MISS PENALTY: 0
L1I WRITEBACK ACCESS:     0  HIT:     0  MISS:     0  HIT %:     0  MISS %:     0  AVERAGE MISS PENALTY: 0

L2C TOTAL     ACCESS: 7150013  HIT: 3654033  MISS: 3495980  HIT %: 51.1053  MISS %: 48.8947  AVERAGE MISS PENALTY: 1.91982e+07
L2C LOAD      ACCESS: 398151  HIT: 44292  MISS: 353859  HIT %: 11.1244  MISS %: 88.8756  AVERAGE MISS PENALTY: 1.8966e+08
L2C RFO       ACCESS:     0  HIT:     0  MISS:     0  HIT %:     0  MISS %:     0  AVERAGE MISS PENALTY: 0
L2C PREFETCH  ACCESS: 5707841  HIT: 2565751  MISS: 3142090  HIT %: 44.9513  MISS %: 55.0487  AVERAGE MISS PENALTY: 1138.57
L2C WRITEBACK ACCESS: 1044021  HIT: 1043990  MISS:    31  HIT %: 99.997  MISS %: 0.00296929  AVERAGE MISS PENALTY: 0


LLC0 TOTAL     ACCESS: 564962  HIT: 100211  MISS: 464751  HIT %: 17.7377  MISS %: 82.2623  AVERAGE MISS PENALTY: 1039.61
LLC0 LOAD      ACCESS: 54556  HIT:     1  MISS: 54555  HIT %: 0.00183298  MISS %: 99.9982  AVERAGE MISS PENALTY: 979.858
LLC0 RFO       ACCESS:     0  HIT:     0  MISS:     0  HIT %:     0  MISS %:     0  AVERAGE MISS PENALTY: 0
LLC0 PREFETCH  ACCESS: 379973  HIT:    75  MISS: 379898  HIT %: 0.0197382  MISS %: 99.9803  AVERAGE MISS PENALTY: 1131.1
LLC0 WRITEBACK ACCESS: 130433  HIT: 100135  MISS: 30298  HIT %: 76.7712  MISS %: 23.2288  AVERAGE MISS PENALTY: 0

LLC1 TOTAL     ACCESS: 565960  HIT: 99612  MISS: 466348  HIT %: 17.6005  MISS %: 82.3995  AVERAGE MISS PENALTY: 1038.1
LLC1 LOAD      ACCESS:  4594  HIT:     0  MISS:  4594  HIT %:     0  MISS %:   100  AVERAGE MISS PENALTY: 1144.85
LLC1 RFO       ACCESS:     0  HIT:     0  MISS:     0  HIT %:     0  MISS %:     0  AVERAGE MISS PENALTY: 0
LLC1 PREFETCH  ACCESS: 430934  HIT:     7  MISS: 430927  HIT %: 0.00162438  MISS %: 99.9984  AVERAGE MISS PENALTY: 1111.22
LLC1 WRITEBACK ACCESS: 130432  HIT: 99605  MISS: 30827  HIT %: 76.3655  MISS %: 23.6345  AVERAGE MISS PENALTY: 0

LLC2 TOTAL     ACCESS: 567432  HIT: 99903  MISS: 467529  HIT %: 17.6062  MISS %: 82.3938  AVERAGE MISS PENALTY: 1084.54
LLC2 LOAD      ACCESS:  4445  HIT:     0  MISS:  4445  HIT %:     0  MISS %:   100  AVERAGE MISS PENALTY: 1193.26
LLC2 RFO       ACCESS:     0  HIT:     0  MISS:     0  HIT %:     0  MISS %:     0  AVERAGE MISS PENALTY: 0
LLC2 PREFETCH  ACCESS: 432538  HIT:     8  MISS: 432530  HIT %: 0.00184955  MISS %: 99.9982  AVERAGE MISS PENALTY: 1160.03
LLC2 WRITEBACK ACCESS: 130449  HIT: 99895  MISS: 30554  HIT %: 76.5778  MISS %: 23.4222  AVERAGE MISS PENALTY: 0

LLC3 TOTAL     ACCESS: 568153  HIT: 99728  MISS: 468425  HIT %: 17.553  MISS %: 82.447  AVERAGE MISS PENALTY: 1087.61
LLC3 LOAD      ACCESS:  4008  HIT:     0  MISS:  4008  HIT %:     0  MISS %:   100  AVERAGE MISS PENALTY: 1228.18
LLC3 RFO       ACCESS:     0  HIT:     0  MISS:     0  HIT %:     0  MISS %:     0  AVERAGE MISS PENALTY: 0
LLC3 PREFETCH  ACCESS: 433706  HIT:     5  MISS: 433701  HIT %: 0.00115285  MISS %: 99.9988  AVERAGE MISS PENALTY: 1163.34
LLC3 WRITEBACK ACCESS: 130439  HIT: 99723  MISS: 30716  HIT %: 76.4518  MISS %: 23.5482  AVERAGE MISS PENALTY: 0

LLC4 TOTAL     ACCESS: 568242  HIT: 99624  MISS: 468618  HIT %: 17.532  MISS %: 82.468  AVERAGE MISS PENALTY: 1080.31
LLC4 LOAD      ACCESS:  3143  HIT:     0  MISS:  3143  HIT %:     0  MISS %:   100  AVERAGE MISS PENALTY: 1243.79
LLC4 RFO       ACCESS:     0  HIT:     0  MISS:     0  HIT %:     0  MISS %:     0  AVERAGE MISS PENALTY: 0
LLC4 PREFETCH  ACCESS: 434660  HIT:     6  MISS: 434654  HIT %: 0.00138039  MISS %: 99.9986  AVERAGE MISS PENALTY: 1155.73
LLC4 WRITEBACK ACCESS: 130439  HIT: 99618  MISS: 30821  HIT %: 76.3713  MISS %: 23.6287  AVERAGE MISS PENALTY: 0

LLC5 TOTAL     ACCESS: 568203  HIT: 99920  MISS: 468283  HIT %: 17.5853  MISS %: 82.4147  AVERAGE MISS PENALTY: 1078.54
LLC5 LOAD      ACCESS:  3506  HIT:    18  MISS:  3488  HIT %: 0.513406  MISS %: 99.4866  AVERAGE MISS PENALTY: 1244.77
LLC5 RFO       ACCESS:     0  HIT:     0  MISS:     0  HIT %:     0  MISS %:     0  AVERAGE MISS PENALTY: 0
LLC5 PREFETCH  ACCESS: 434257  HIT:     5  MISS: 434252  HIT %: 0.00115139  MISS %: 99.9988  AVERAGE MISS PENALTY: 1153.07
LLC5 WRITEBACK ACCESS: 130440  HIT: 99897  MISS: 30543  HIT %: 76.5846  MISS %: 23.4154  AVERAGE MISS PENALTY: 0

LLC6 TOTAL     ACCESS: 568284  HIT: 99776  MISS: 468508  HIT %: 17.5574  MISS %: 82.4426  AVERAGE MISS PENALTY: 1110.83
LLC6 LOAD      ACCESS:  3598  HIT:    23  MISS:  3575  HIT %: 0.639244  MISS %: 99.3608  AVERAGE MISS PENALTY: 1300.38
LLC6 RFO       ACCESS:     0  HIT:     0  MISS:     0  HIT %:     0  MISS %:     0  AVERAGE MISS PENALTY: 0
LLC6 PREFETCH  ACCESS: 434258  HIT:     5  MISS: 434253  HIT %: 0.00115139  MISS %: 99.9988  AVERAGE MISS PENALTY: 1187.75
LLC6 WRITEBACK ACCESS: 130428  HIT: 99748  MISS: 30680  HIT %: 76.4774  MISS %: 23.5226  AVERAGE MISS PENALTY: 0

LLC7 TOTAL     ACCESS: 568200  HIT: 99711  MISS: 468489  HIT %: 17.5486  MISS %: 82.4514  AVERAGE MISS PENALTY: 1112.8
LLC7 LOAD      ACCESS:  3925  HIT:     0  MISS:  3925  HIT %:     0  MISS %:   100  AVERAGE MISS PENALTY: 1306.78
LLC7 RFO       ACCESS:     0  HIT:     0  MISS:     0  HIT %:     0  MISS %:     0  AVERAGE MISS PENALTY: 0
LLC7 PREFETCH  ACCESS: 433848  HIT:    92  MISS: 433756  HIT %: 0.0212056  MISS %: 99.9788  AVERAGE MISS PENALTY: 1190.09
LLC7 WRITEBACK ACCESS: 130427  HIT: 99619  MISS: 30808  HIT %: 76.3791  MISS %: 23.6209  AVERAGE MISS PENALTY: 0

Total Rob stall cycles : 	281830743
Total Load Rob Stall cycles : 	229588921
Average Rob Stall cycles : 	 23
Average Load Rob Stall cycles : 	 98

CPU 1 cumulative IPC: 0.6119 instructions: 201667314 cycles: 329575804
ITLB TOTAL     ACCESS: 32423845  HIT: 32423845  MISS:     0  HIT %:   100  MISS %:     0  AVERAGE MISS PENALTY: 0
ITLB LOAD      ACCESS: 32423845  HIT: 32423845  MISS:     0  HIT %:   100  MISS %:     0  AVERAGE MISS PENALTY: 0
ITLB RFO       ACCESS:     0  HIT:     0  MISS:     0  HIT %:     0  MISS %:     0  AVERAGE MISS PENALTY: 0
ITLB PREFETCH  ACCESS:     0  HIT:     0  MISS:     0  HIT %:     0  MISS %:     0  AVERAGE MISS PENALTY: 0
ITLB WRITEBACK ACCESS:     0  HIT:     0  MISS:     0  HIT %:     0  MISS %:     0  AVERAGE MISS PENALTY: 0

DTLB TOTAL     ACCESS: 54164554  HIT: 54090263  MISS: 74291  HIT %: 99.8628  MISS %: 0.137158  AVERAGE MISS PENALTY: 89.4609
DTLB LOAD      ACCESS: 47251787  HIT: 47180133  MISS: 71654  HIT %: 99.8484  MISS %: 0.151643  AVERAGE MISS PENALTY: 92.4072
DTLB RFO       ACCESS: 6912767  HIT: 6910130  MISS:  2637  HIT %: 99.9619  MISS %: 0.0381468  AVERAGE MISS PENALTY: 9.40046
DTLB PREFETCH  ACCESS:     0  HIT:     0  MISS:     0  HIT %:     0  MISS %:     0  AVERAGE MISS PENALTY: 0
DTLB WRITEBACK ACCESS:     0  HIT:     0  MISS:     0  HIT %:     0  MISS %:     0  AVERAGE MISS PENALTY: 0

STLB TOTAL     ACCESS: 74291  HIT: 19227  MISS: 55064  HIT %: 25.8807  MISS %: 74.1193  AVERAGE MISS PENALTY: 100
STLB LOAD      ACCESS: 71654  HIT: 16590  MISS: 55064  HIT %: 23.1529  MISS %: 76.8471  AVERAGE MISS PENALTY: 100
STLB RFO       ACCESS:  2637  HIT:  2637  MISS:     0  HIT %:   100  MISS %:     0  AVERAGE MISS PENALTY: 0
STLB PREFETCH  ACCESS:     0  HIT:     0  MISS:     0  HIT %:     0  MISS %:     0  AVERAGE MISS PENALTY: 0
STLB WRITEBACK ACCESS:     0  HIT:     0  MISS:     0  HIT %:     0  MISS %:     0  AVERAGE MISS PENALTY: 0

L1D TOTAL     ACCESS: 67100698  HIT: 63640712  MISS: 3459986  HIT %: 94.8436  MISS %: 5.15641  AVERAGE MISS PENALTY: 1.74934e+07
L1D LOAD      ACCESS: 45456828  HIT: 45052667  MISS: 404161  HIT %: 99.1109  MISS %: 0.88911  AVERAGE MISS PENALTY: 1.49756e+08
L1D RFO       ACCESS: 9916436  HIT: 9916436  MISS:     0  HIT %:   100  MISS %:     0  AVERAGE MISS PENALTY: 0
L1D PREFETCH  ACCESS: 11727434  HIT: 8671609  MISS: 3055825  HIT %: 73.9429  MISS %: 26.0571  AVERAGE MISS PENALTY: 375.699
L1D WRITEBACK ACCESS:     0  HIT:     0  MISS:     0  HIT %:     0  MISS %:     0  AVERAGE MISS PENALTY: 0

L1I TOTAL     ACCESS: 42056379  HIT: 42056379  MISS:     0  HIT %:   100  MISS %:     0  AVERAGE MISS PENALTY: 0
L1I LOAD      ACCESS: 42056379  HIT: 42056379  MISS:     0  HIT %:   100  MISS %:     0  AVERAGE MISS PENALTY: 0
L1I RFO       ACCESS:     0  HIT:     0  MISS:     0  HIT %:     0  MISS %:     0  AVERAGE MISS PENALTY: 0
L1I PREFETCH  ACCESS:     0  HIT:     0  MISS:     0  HIT %:     0  MISS %:     0  AVERAGE MISS PENALTY: 0
L1I WRITEBACK ACCESS:     0  HIT:     0  MISS:     0  HIT %:     0  MISS %:     0  AVERAGE MISS PENALTY: 0

L2C TOTAL     ACCESS: 7174681  HIT: 3668288  MISS: 3506393  HIT %: 51.1282  MISS %: 48.8718  AVERAGE MISS PENALTY: 1.91979e+07
L2C LOAD      ACCESS: 399022  HIT: 44594  MISS: 354428  HIT %: 11.1758  MISS %: 88.8242  AVERAGE MISS PENALTY: 1.89917e+08
L2C RFO       ACCESS:     0  HIT:     0  MISS:     0  HIT %:     0  MISS %:     0  AVERAGE MISS PENALTY: 0
L2C PREFETCH  ACCESS: 5728554  HIT: 2576614  MISS: 3151940  HIT %: 44.9784  MISS %: 55.0216  AVERAGE MISS PENALTY: 1135.7
L2C WRITEBACK ACCESS: 1047105  HIT: 1047080  MISS:    25  HIT %: 99.9976  MISS %: 0.00238754  AVERAGE MISS PENALTY: 0


LLC0 TOTAL     ACCESS: 566655  HIT: 100404  MISS: 466251  HIT %: 17.7187  MISS %: 82.2813  AVERAGE MISS PENALTY: 1036.44
LLC0 LOAD      ACCESS: 54616  HIT:     1  MISS: 54615  HIT %: 0.00183097  MISS %: 99.9982  AVERAGE MISS PENALTY: 971.674
LLC0 RFO       ACCESS:     0  HIT:     0  MISS:     0  HIT %:     0  MISS %:     0  AVERAGE MISS PENALTY: 0
LLC0 PREFETCH  ACCESS: 381230  HIT:    73  MISS: 381157  HIT %: 0.0191485  MISS %: 99.9809  AVERAGE MISS PENALTY: 1128.6
LLC0 WRITEBACK ACCESS: 130809  HIT: 100330  MISS: 30479  HIT %: 76.6996  MISS %: 23.3004  AVERAGE MISS PENALTY: 0

LLC1 TOTAL     ACCESS: 567642  HIT: 100335  MISS: 467307  HIT %: 17.6758  MISS %: 82.3242  AVERAGE MISS PENALTY: 1036.29
LLC1 LOAD      ACCESS:  4460  HIT:     0  MISS:  4460  HIT %:     0  MISS %:   100  AVERAGE MISS PENALTY: 1161.57
LLC1 RFO       ACCESS:     0  HIT:     0  MISS:     0  HIT %:     0  MISS %:     0  AVERAGE MISS PENALTY: 0
LLC1 PREFETCH  ACCESS: 432373  HIT:     2  MISS: 432371  HIT %: 0.000462564  MISS %: 99.9995  AVERAGE MISS PENALTY: 1108.04
LLC1 WRITEBACK ACCESS: 130809  HIT: 100333  MISS: 30476  HIT %: 76.7019  MISS %: 23.2981  AVERAGE MISS PENALTY: 0

LLC2 TOTAL     ACCESS: 569070  HIT: 100219  MISS: 468851  HIT %: 17.611  MISS %: 82.389  AVERAGE MISS PENALTY: 1082.75
LLC2 LOAD      ACCESS:  4431  HIT:     0  MISS:  4431  HIT %:     0  MISS %:   100  AVERAGE MISS PENALTY: 1175.43
LLC2 RFO       ACCESS:     0  HIT:     0  MISS:     0  HIT %:     0  MISS %:     0  AVERAGE MISS PENALTY: 0
LLC2 PREFETCH  ACCESS: 433816  HIT:    10  MISS: 433806  HIT %: 0.00230512  MISS %: 99.9977  AVERAGE MISS PENALTY: 1158.22
LLC2 WRITEBACK ACCESS: 130823  HIT: 100209  MISS: 30614  HIT %: 76.5989  MISS %: 23.4011  AVERAGE MISS PENALTY: 0

LLC3 TOTAL     ACCESS: 569862  HIT: 99914  MISS: 469948  HIT %: 17.533  MISS %: 82.467  AVERAGE MISS PENALTY: 1085.5
LLC3 LOAD      ACCESS:  3942  HIT:     0  MISS:  3942  HIT %:     0  MISS %:   100  AVERAGE MISS PENALTY: 1237.84
LLC3 RFO       ACCESS:     0  HIT:     0  MISS:     0  HIT %:     0  MISS %:     0  AVERAGE MISS PENALTY: 0
LLC3 PREFETCH  ACCESS: 435109  HIT:     8  MISS: 435101  HIT %: 0.00183862  MISS %: 99.9982  AVERAGE MISS PENALTY: 1161.22
LLC3 WRITEBACK ACCESS: 130811  HIT: 99906  MISS: 30905  HIT %: 76.3743  MISS %: 23.6257  AVERAGE MISS PENALTY: 0

LLC4 TOTAL     ACCESS: 569902  HIT: 100199  MISS: 469703  HIT %: 17.5818  MISS %: 82.4182  AVERAGE MISS PENALTY: 1076.85
[...]
LLC1 PREFETCH  REQUESTED:     0  ISSUED:     0  USEFUL:     0  USELESS: 3453056
 USEFUL LOAD PREFETCHES:          0 PREFETCH ISSUED TO LOWER LEVEL:  215366360  ACCURACY: 0
 TIMELY PREFETCHES:          0 LATE PREFETCHES: 0 DROPPED PREFETCHES: 0
LLC1 AVERAGE MISS LATENCY: 1034.84 cycles
LLC2 TOTAL     ACCESS: 564369  HIT: 99451  MISS: 464918  HIT %: 17.6216  MISS %: 82.3784  AVERAGE MISS PENALTY: 1082.56
LLC2 LOAD      ACCESS:  4430  HIT:     0  MISS:  4430  HIT %:     0  MISS %:   100  AVERAGE MISS PENALTY: 1205.73
LLC2 RFO       ACCESS:     0  HIT:     0  MISS:     0  HIT %:     0  MISS %:     0  AVERAGE MISS PENALTY: 0
LLC2 PREFETCH  ACCESS: 430204  HIT:     8  MISS: 430196  HIT %: 0.00185958  MISS %: 99.9981  AVERAGE MISS PENALTY: 1157.52
LLC2 WRITEBACK ACCESS: 129735  HIT: 99443  MISS: 30292  HIT %: 76.6509  MISS %: 23.3491  AVERAGE MISS PENALTY: 0
LLC2 PREFETCH  REQUESTED:     0  ISSUED:     0  USEFUL:     0  USELESS: 3465341
 USEFUL LOAD PREFETCHES:          0 PREFETCH ISSUED TO LOWER LEVEL:  231107393  ACCURACY: 0
 TIMELY PREFETCHES:          0 LATE PREFETCHES: 0 DROPPED PREFETCHES: 0
LLC2 AVERAGE MISS LATENCY: 1082.56 cycles
LLC3 TOTAL     ACCESS: 565115  HIT: 99384  MISS: 465731  HIT %: 17.5865  MISS %: 82.4135  AVERAGE MISS PENALTY: 1088.42
LLC3 LOAD      ACCESS:  3829  HIT:     0  MISS:  3829  HIT %:     0  MISS %:   100  AVERAGE MISS PENALTY: 1202.99
LLC3 RFO       ACCESS:     0  HIT:     0  MISS:     0  HIT %:     0  MISS %:     0  AVERAGE MISS PENALTY: 0
LLC3 PREFETCH  ACCESS: 431560  HIT:     7  MISS: 431553  HIT %: 0.00162202  MISS %: 99.9984  AVERAGE MISS PENALTY: 1163.94
LLC3 WRITEBACK ACCESS: 129726  HIT: 99377  MISS: 30349  HIT %: 76.6053  MISS %: 23.3947  AVERAGE MISS PENALTY: 0
LLC3 PREFETCH  REQUESTED:     0  ISSUED:     0  USEFUL:     0  USELESS: 3475362
 USEFUL LOAD PREFETCHES:          0 PREFETCH ISSUED TO LOWER LEVEL:  248911923  ACCURACY: 0
 TIMELY PREFETCHES:          0 LATE PREFETCHES: 0 DROPPED PREFETCHES: 0
LLC3 AVERAGE MISS LATENCY: 1088.42 cycles
LLC4 TOTAL     ACCESS: 565151  HIT: 99474  MISS: 465677  HIT %: 17.6013  MISS %: 82.3987  AVERAGE MISS PENALTY: 1077.99
LLC4 LOAD      ACCESS:  3098  HIT:     0  MISS:  3098  HIT %:     0  MISS %:   100  AVERAGE MISS PENALTY: 1277.6
LLC4 RFO       ACCESS:     0  HIT:     0  MISS:     0  HIT %:     0  MISS %:     0  AVERAGE MISS PENALTY: 0
LLC4 PREFETCH  ACCESS: 432328  HIT:     7  MISS: 432321  HIT %: 0.00161914  MISS %: 99.9984  AVERAGE MISS PENALTY: 1152.01
LLC4 WRITEBACK ACCESS: 129725  HIT: 99467  MISS: 30258  HIT %: 76.6753  MISS %: 23.3247  AVERAGE MISS PENALTY: 0
LLC4 PREFETCH  REQUESTED:     0  ISSUED:     0  USEFUL:     1  USELESS: 3482302
 USEFUL LOAD PREFETCHES:          1 PREFETCH ISSUED TO LOWER LEVEL:  268889762  ACCURACY: 3.719e-07
 TIMELY PREFETCHES:          1 LATE PREFETCHES: 0 DROPPED PREFETCHES: 0
LLC4 AVERAGE MISS LATENCY: 1077.99 cycles
LLC5 TOTAL     ACCESS: 565150  HIT: 99566  MISS: 465584  HIT %: 17.6176  MISS %: 82.3824  AVERAGE MISS PENALTY: 1075.78
LLC5 LOAD      ACCESS:  3527  HIT:    19  MISS:  3508  HIT %: 0.538701  MISS %: 99.4613  AVERAGE MISS PENALTY: 1225.33
LLC5 RFO       ACCESS:     0  HIT:     0  MISS:     0  HIT %:     0  MISS %:     0  AVERAGE MISS PENALTY: 0
LLC5 PREFETCH  ACCESS: 431901  HIT:    10  MISS: 431891  HIT %: 0.00231535  MISS %: 99.9977  AVERAGE MISS PENALTY: 1149.76
LLC5 WRITEBACK ACCESS: 129722  HIT: 99537  MISS: 30185  HIT %: 76.731  MISS %: 23.269  AVERAGE MISS PENALTY: 0
LLC5 PREFETCH  REQUESTED:     0  ISSUED:     0  USEFUL:     1  USELESS: 3479027
 USEFUL LOAD PREFETCHES:          1 PREFETCH ISSUED TO LOWER LEVEL:  277963327  ACCURACY: 3.5976e-07
 TIMELY PREFETCHES:          1 LATE PREFETCHES: 0 DROPPED PREFETCHES: 0
LLC5 AVERAGE MISS LATENCY: 1075.78 cycles
LLC6 TOTAL     ACCESS: 565200  HIT: 99694  MISS: 465506  HIT %: 17.6387  MISS %: 82.3613  AVERAGE MISS PENALTY: 1110.97
LLC6 LOAD      ACCESS:  3490  HIT:    21  MISS:  3469  HIT %: 0.601719  MISS %: 99.3983  AVERAGE MISS PENALTY: 1281.26
LLC6 RFO       ACCESS:     0  HIT:     0  MISS:     0  HIT %:     0  MISS %:     0  AVERAGE MISS PENALTY: 0
LLC6 PREFETCH  ACCESS: 432000  HIT:     5  MISS: 431995  HIT %: 0.00115741  MISS %: 99.9988  AVERAGE MISS PENALTY: 1186.86
LLC6 WRITEBACK ACCESS: 129710  HIT: 99668  MISS: 30042  HIT %: 76.8391  MISS %: 23.1609  AVERAGE MISS PENALTY: 0
LLC6 PREFETCH  REQUESTED:     0  ISSUED:     0  USEFUL:     3  USELESS: 3479179
 USEFUL LOAD PREFETCHES:          3 PREFETCH ISSUED TO LOWER LEVEL:  304628664  ACCURACY: 9.84806e-07
 TIMELY PREFETCHES:          3 LATE PREFETCHES: 0 DROPPED PREFETCHES: 0
LLC6 AVERAGE MISS LATENCY: 1110.97 cycles
LLC7 TOTAL     ACCESS: 565155  HIT: 99576  MISS: 465579  HIT %: 17.6192  MISS %: 82.3808  AVERAGE MISS PENALTY: 1112.4
LLC7 LOAD      ACCESS:  3881  HIT:     1  MISS:  3880  HIT %: 0.0257666  MISS %: 99.9742  AVERAGE MISS PENALTY: 1309.46
LLC7 RFO       ACCESS:     0  HIT:     0  MISS:     0  HIT %:     0  MISS %:     0  AVERAGE MISS PENALTY: 0
LLC7 PREFETCH  ACCESS: 431569  HIT:    84  MISS: 431485  HIT %: 0.0194639  MISS %: 99.9805  AVERAGE MISS PENALTY: 1188.52
LLC7 WRITEBACK ACCESS: 129705  HIT: 99491  MISS: 30214  HIT %: 76.7056  MISS %: 23.2944  AVERAGE MISS PENALTY: 0
LLC7 PREFETCH  REQUESTED:     0  ISSUED:     0  USEFUL:     4  USELESS: 3475880
 USEFUL LOAD PREFETCHES:          4 PREFETCH ISSUED TO LOWER LEVEL:  327285395  ACCURACY: 1.22217e-06
 TIMELY PREFETCHES:          4 LATE PREFETCHES: 0 DROPPED PREFETCHES: 0
LLC7 AVERAGE MISS LATENCY: 1112.4 cycles
ROI Average ROB Stall Cycles:	23.1396
ROI Total ROB Stalls Cycles:	279226604
ROI TOTAL ROB counter      :	12067034
ROI Average Load ROB Stall Cycles:	98.2826
ROI Total Load ROB Stalls Cycle  :	227298426
ROI Total Load ROB stalls Counter:	2312703
Major fault: 0 Minor fault: 87187

CPU 7 cumulative IPC: 0.609886 instructions: 200000000 cycles: 327930280
ITLB TOTAL     ACCESS: 32155923  HIT: 32155923  MISS:     0  HIT %:   100  MISS %:     0  AVERAGE MISS PENALTY: 0
ITLB LOAD      ACCESS: 32155923  HIT: 32155923  MISS:     0  HIT %:   100  MISS %:     0  AVERAGE MISS PENALTY: 0
ITLB RFO       ACCESS:     0  HIT:     0  MISS:     0  HIT %:     0  MISS %:     0  AVERAGE MISS PENALTY: 0
ITLB PREFETCH  ACCESS:     0  HIT:     0  MISS:     0  HIT %:     0  MISS %:     0  AVERAGE MISS PENALTY: 0
ITLB WRITEBACK ACCESS:     0  HIT:     0  MISS:     0  HIT %:     0  MISS %:     0  AVERAGE MISS PENALTY: 0
ITLB PREFETCH  REQUESTED:     0  ISSUED:     0  USEFUL:     0  USELESS:     0
 USEFUL LOAD PREFETCHES:          0 PREFETCH ISSUED TO LOWER LEVEL:          0  ACCURACY: -nan
 TIMELY PREFETCHES:          0 LATE PREFETCHES: 0 DROPPED PREFETCHES: 0
ITLB AVERAGE MISS LATENCY: -nan cycles
DTLB TOTAL     ACCESS: 53715889  HIT: 53642012  MISS: 73877  HIT %: 99.8625  MISS %: 0.137533  AVERAGE MISS PENALTY: 89.271
DTLB LOAD      ACCESS: 46860820  HIT: 46789561  MISS: 71259  HIT %: 99.8479  MISS %: 0.152065  AVERAGE MISS PENALTY: 92.2065
DTLB RFO       ACCESS: 6855069  HIT: 6852451  MISS:  2618  HIT %: 99.9618  MISS %: 0.0381907  AVERAGE MISS PENALTY: 9.36937
DTLB PREFETCH  ACCESS:     0  HIT:     0  MISS:     0  HIT %:     0  MISS %:     0  AVERAGE MISS PENALTY: 0
DTLB WRITEBACK ACCESS:     0  HIT:     0  MISS:     0  HIT %:     0  MISS %:     0  AVERAGE MISS PENALTY: 0
DTLB PREFETCH  REQUESTED:     0  ISSUED:     0  USEFUL:     0  USELESS:     0
 USEFUL LOAD PREFETCHES:          0 PREFETCH ISSUED TO LOWER LEVEL:          0  ACCURACY: -nan
 TIMELY PREFETCHES:          0 LATE PREFETCHES: 0 DROPPED PREFETCHES: 0
DTLB AVERAGE MISS LATENCY: 89.271 cycles
STLB TOTAL     ACCESS: 73877  HIT: 19267  MISS: 54610  HIT %: 26.0798  MISS %: 73.9202  AVERAGE MISS PENALTY: 100
STLB LOAD      ACCESS: 71259  HIT: 16649  MISS: 54610  HIT %: 23.3641  MISS %: 76.6359  AVERAGE MISS PENALTY: 100
STLB RFO       ACCESS:  2618  HIT:  2618  MISS:     0  HIT %:   100  MISS %:     0  AVERAGE MISS PENALTY: 0
STLB PREFETCH  ACCESS:     0  HIT:     0  MISS:     0  HIT %:     0  MISS %:     0  AVERAGE MISS PENALTY: 0
STLB WRITEBACK ACCESS:     0  HIT:     0  MISS:     0  HIT %:     0  MISS %:     0  AVERAGE MISS PENALTY: 0
STLB PREFETCH  REQUESTED:     0  ISSUED:     0  USEFUL:     0  USELESS:     0
 USEFUL LOAD PREFETCHES:          0 PREFETCH ISSUED TO LOWER LEVEL:          0  ACCURACY: -nan
 TIMELY PREFETCHES:          0 LATE PREFETCHES: 0 DROPPED PREFETCHES: 0
STLB AVERAGE MISS LATENCY: 100 cycles
L1D TOTAL     ACCESS: 66557775  HIT: 63126387  MISS: 3431388  HIT %: 94.8445  MISS %: 5.1555  AVERAGE MISS PENALTY: 1.74547e+07
L1D LOAD      ACCESS: 45083068  HIT: 44681920  MISS: 401148  HIT %: 99.1102  MISS %: 0.889797  AVERAGE MISS PENALTY: 1.49303e+08
L1D RFO       ACCESS: 9834439  HIT: 9834439  MISS:     0  HIT %:   100  MISS %:     0  AVERAGE MISS PENALTY: 0
L1D PREFETCH  ACCESS: 11640268  HIT: 8610028  MISS: 3030240  HIT %: 73.9676  MISS %: 26.0324  AVERAGE MISS PENALTY: 377.725
L1D WRITEBACK ACCESS:     0  HIT:     0  MISS:     0  HIT %:     0  MISS %:     0  AVERAGE MISS PENALTY: 0
L1D PREFETCH  REQUESTED: 14154666  ISSUED: 13884515  USEFUL: 2874009  USELESS: 156235
 USEFUL LOAD PREFETCHES:    2874009 PREFETCH ISSUED TO LOWER LEVEL:   21935336  ACCURACY: 13.1022
 TIMELY PREFETCHES:    2874009 LATE PREFETCHES: 246891 DROPPED PREFETCHES: 270151
L1D AVERAGE MISS LATENCY: 420.264 cycles
L1I TOTAL     ACCESS: 41710030  HIT: 41710030  MISS:     0  HIT %:   100  MISS %:     0  AVERAGE MISS PENALTY: 0
L1I LOAD      ACCESS: 41710030  HIT: 41710030  MISS:     0  HIT %:   100  MISS %:     0  AVERAGE MISS PENALTY: 0
L1I RFO       ACCESS:     0  HIT:     0  MISS:     0  HIT %:     0  MISS %:     0  AVERAGE MISS PENALTY: 0
L1I PREFETCH  ACCESS:     0  HIT:     0  MISS:     0  HIT %:     0  MISS %:     0  AVERAGE MISS PENALTY: 0
L1I WRITEBACK ACCESS:     0  HIT:     0  MISS:     0  HIT %:     0  MISS %:     0  AVERAGE MISS PENALTY: 0
L1I PREFETCH  REQUESTED:     0  ISSUED:     0  USEFUL:     0  USELESS:     0
 USEFUL LOAD PREFETCHES:          0 PREFETCH ISSUED TO LOWER LEVEL:          0  ACCURACY: -nan
 TIMELY PREFETCHES:          0 LATE PREFETCHES: 0 DROPPED PREFETCHES: 0
L1I AVERAGE MISS LATENCY: -nan cycles
L2C TOTAL     ACCESS: 7110688  HIT: 3633348  MISS: 3477340  HIT %: 51.097  MISS %: 48.903  AVERAGE MISS PENALTY: 1.91528e+07
L2C LOAD      ACCESS: 395820  HIT: 43823  MISS: 351997  HIT %: 11.0714  MISS %: 88.9286  AVERAGE MISS PENALTY: 1.89199e+08
L2C RFO       ACCESS:     0  HIT:     0  MISS:     0  HIT %:     0  MISS %:     0  AVERAGE MISS PENALTY: 0
L2C PREFETCH  ACCESS: 5676427  HIT: 2551109  MISS: 3125318  HIT %: 44.9422  MISS %: 55.0578  AVERAGE MISS PENALTY: 1164.39
L2C WRITEBACK ACCESS: 1038441  HIT: 1038416  MISS:    25  HIT %: 99.9976  MISS %: 0.00240746  AVERAGE MISS PENALTY: 0
L2C PREFETCH  REQUESTED: 4996750  ISSUED: 4996351  USEFUL: 43652  USELESS: 3082335
 USEFUL LOAD PREFETCHES:      43652 PREFETCH ISSUED TO LOWER LEVEL:    7027033  ACCURACY: 0.621201
 TIMELY PREFETCHES:      43652 LATE PREFETCHES: 273511 DROPPED PREFETCHES: 399
L2C AVERAGE MISS LATENCY: 1107.26 cycles
LLC0 TOTAL     ACCESS: 562024  HIT: 99332  MISS: 462692  HIT %: 17.674  MISS %: 82.326  AVERAGE MISS PENALTY: 1036.53
LLC0 LOAD      ACCESS: 54261  HIT:     0  MISS: 54261  HIT %:     0  MISS %:   100  AVERAGE MISS PENALTY: 974.94
LLC0 RFO       ACCESS:     0  HIT:     0  MISS:     0  HIT %:     0  MISS %:     0  AVERAGE MISS PENALTY: 0
LLC0 PREFETCH  ACCESS: 378001  HIT:   111  MISS: 377890  HIT %: 0.029365  MISS %: 99.9706  AVERAGE MISS PENALTY: 1129.14
LLC0 WRITEBACK ACCESS: 129762  HIT: 99221  MISS: 30541  HIT %: 76.4638  MISS %: 23.5362  AVERAGE MISS PENALTY: 0
LLC0 PREFETCH  REQUESTED:     0  ISSUED:     0  USEFUL:     1  USELESS: 3044023
 USEFUL LOAD PREFETCHES:          1 PREFETCH ISSUED TO LOWER LEVEL:  189725482  ACCURACY: 5.27077e-07
 TIMELY PREFETCHES:          1 LATE PREFETCHES: 0 DROPPED PREFETCHES: 0
LLC0 AVERAGE MISS LATENCY: 1036.53 cycles
Deadblocks : 436563 Deadblock percentage : 804.561

LLC1 TOTAL     ACCESS: 563003  HIT: 99437  MISS: 463566  HIT %: 17.6619  MISS %: 82.3381  AVERAGE MISS PENALTY: 1039.61
LLC1 LOAD      ACCESS:  4498  HIT:     0  MISS:  4498  HIT %:     0  MISS %:   100  AVERAGE MISS PENALTY: 1161.26
LLC1 RFO       ACCESS:     0  HIT:     0  MISS:     0  HIT %:     0  MISS %:     0  AVERAGE MISS PENALTY: 0
LLC1 PREFETCH  ACCESS: 428741  HIT:     9  MISS: 428732  HIT %: 0.00209917  MISS %: 99.9979  AVERAGE MISS PENALTY: 1111.89
LLC1 WRITEBACK ACCESS: 129764  HIT: 99428  MISS: 30336  HIT %: 76.6222  MISS %: 23.3778  AVERAGE MISS PENALTY: 0
LLC1 PREFETCH  REQUESTED:     0  ISSUED:     0  USEFUL:     0  USELESS: 3453056
 USEFUL LOAD PREFETCHES:          0 PREFETCH ISSUED TO LOWER LEVEL:  215366360  ACCURACY: 0
 TIMELY PREFETCHES:          0 LATE PREFETCHES: 0 DROPPED PREFETCHES: 0
LLC1 AVERAGE MISS LATENCY: 1039.61 cycles
LLC2 TOTAL     ACCESS: 564421  HIT: 98981  MISS: 465440  HIT %: 17.5367  MISS %: 82.4633  AVERAGE MISS PENALTY: 1084.95
LLC2 LOAD      ACCESS:  4436  HIT:     0  MISS:  4436  HIT %:     0  MISS %:   100  AVERAGE MISS PENALTY: 1175.65
LLC2 RFO       ACCESS:     0  HIT:     0  MISS:     0  HIT %:     0  MISS %:     0  AVERAGE MISS PENALTY: 0
LLC2 PREFETCH  ACCESS: 430210  HIT:     7  MISS: 430203  HIT %: 0.00162711  MISS %: 99.9984  AVERAGE MISS PENALTY: 1161.69
LLC2 WRITEBACK ACCESS: 129775  HIT: 98974  MISS: 30801  HIT %: 76.2658  MISS %: 23.7342  AVERAGE MISS PENALTY: 0
LLC2 PREFETCH  REQUESTED:     0  ISSUED:     0  USEFUL:     0  USELESS: 3465341
 USEFUL LOAD PREFETCHES:          0 PREFETCH ISSUED TO LOWER LEVEL:  231107393  ACCURACY: 0
 TIMELY PREFETCHES:          0 LATE PREFETCHES: 0 DROPPED PREFETCHES: 0
LLC2 AVERAGE MISS LATENCY: 1084.95 cycles
LLC3 TOTAL     ACCESS: 565145  HIT: 99056  MISS: 466089  HIT %: 17.5275  MISS %: 82.4725  AVERAGE MISS PENALTY: 1088.59
LLC3 LOAD      ACCESS:  3839  HIT:     0  MISS:  3839  HIT %:     0  MISS %:   100  AVERAGE MISS PENALTY: 1228.39
LLC3 RFO       ACCESS:     0  HIT:     0  MISS:     0  HIT %:     0  MISS %:     0  AVERAGE MISS PENALTY: 0
LLC3 PREFETCH  ACCESS: 431539  HIT:     5  MISS: 431534  HIT %: 0.00115864  MISS %: 99.9988  AVERAGE MISS PENALTY: 1164.83
LLC3 WRITEBACK ACCESS: 129767  HIT: 99051  MISS: 30716  HIT %: 76.3299  MISS %: 23.6701  AVERAGE MISS PENALTY: 0
LLC3 PREFETCH  REQUESTED:     0  ISSUED:     0  USEFUL:     0  USELESS: 3475362
 USEFUL LOAD PREFETCHES:          0 PREFETCH ISSUED TO LOWER LEVEL:  248911923  ACCURACY: 0
 TIMELY PREFETCHES:          0 LATE PREFETCHES: 0 DROPPED PREFETCHES: 0
LLC3 AVERAGE MISS LATENCY: 1088.59 cycles
LLC4 TOTAL     ACCESS: 565219  HIT: 99082  MISS: 466137  HIT %: 17.5298  MISS %: 82.4702  AVERAGE MISS PENALTY: 1078.52
LLC4 LOAD      ACCESS:  3088  HIT:     0  MISS:  3088  HIT %:     0  MISS %:   100  AVERAGE MISS PENALTY: 1225.6
LLC4 RFO       ACCESS:     0  HIT:     0  MISS:     0  HIT %:     0  MISS %:     0  AVERAGE MISS PENALTY: 0
LLC4 PREFETCH  ACCESS: 432363  HIT:     6  MISS: 432357  HIT %: 0.00138772  MISS %: 99.9986  AVERAGE MISS PENALTY: 1154.03
LLC4 WRITEBACK ACCESS: 129768  HIT: 99076  MISS: 30692  HIT %: 76.3486  MISS %: 23.6514  AVERAGE MISS PENALTY: 0
LLC4 PREFETCH  REQUESTED:     0  ISSUED:     0  USEFUL:     1  USELESS: 3482302
 USEFUL LOAD PREFETCHES:          1 PREFETCH ISSUED TO LOWER LEVEL:  268889762  ACCURACY: 3.719e-07
 TIMELY PREFETCHES:          1 LATE PREFETCHES: 0 DROPPED PREFETCHES: 0
LLC4 AVERAGE MISS LATENCY: 1078.52 cycles
LLC5 TOTAL     ACCESS: 565183  HIT: 99119  MISS: 466064  HIT %: 17.5375  MISS %: 82.4625  AVERAGE MISS PENALTY: 1077.54
LLC5 LOAD      ACCESS:  3461  HIT:    21  MISS:  3440  HIT %: 0.606761  MISS %: 99.3932  AVERAGE MISS PENALTY: 1247.79
LLC5 RFO       ACCESS:     0  HIT:     0  MISS:     0  HIT %:     0  MISS %:     0  AVERAGE MISS PENALTY: 0
LLC5 PREFETCH  ACCESS: 431952  HIT:     6  MISS: 431946  HIT %: 0.00138904  MISS %: 99.9986  AVERAGE MISS PENALTY: 1152.72
LLC5 WRITEBACK ACCESS: 129770  HIT: 99092  MISS: 30678  HIT %: 76.3597  MISS %: 23.6403  AVERAGE MISS PENALTY: 0
LLC5 PREFETCH  REQUESTED:     0  ISSUED:     0  USEFUL:     1  USELESS: 3479027
 USEFUL LOAD PREFETCHES:          1 PREFETCH ISSUED TO LOWER LEVEL:  277963327  ACCURACY: 3.5976e-07
 TIMELY PREFETCHES:          1 LATE PREFETCHES: 0 DROPPED PREFETCHES: 0
LLC5 AVERAGE MISS LATENCY: 1077.54 cycles
LLC6 TOTAL     ACCESS: 565193  HIT: 99160  MISS: 466033  HIT %: 17.5444  MISS %: 82.4556  AVERAGE MISS PENALTY: 1111.49
LLC6 LOAD      ACCESS:  3530  HIT:    16  MISS:  3514  HIT %: 0.453258  MISS %: 99.5467  AVERAGE MISS PENALTY: 1300.35
LLC6 RFO       ACCESS:     0  HIT:     0  MISS:     0  HIT %:     0  MISS %:     0  AVERAGE MISS PENALTY: 0
LLC6 PREFETCH  ACCESS: 431903  HIT:     8  MISS: 431895  HIT %: 0.00185227  MISS %: 99.9981  AVERAGE MISS PENALTY: 1188.77
LLC6 WRITEBACK ACCESS: 129760  HIT: 99136  MISS: 30624  HIT %: 76.3995  MISS %: 23.6005  AVERAGE MISS PENALTY: 0
LLC6 PREFETCH  REQUESTED:     0  ISSUED:     0  USEFUL:     3  USELESS: 3479179
 USEFUL LOAD PREFETCHES:          3 PREFETCH ISSUED TO LOWER LEVEL:  304628664  ACCURACY: 9.84806e-07
 TIMELY PREFETCHES:          3 LATE PREFETCHES: 0 DROPPED PREFETCHES: 0
LLC6 AVERAGE MISS LATENCY: 1111.49 cycles
LLC7 TOTAL     ACCESS: 565255  HIT: 99563  MISS: 465692  HIT %: 17.6138  MISS %: 82.3862  AVERAGE MISS PENALTY: 1114.21
LLC7 LOAD      ACCESS:  3869  HIT:     0  MISS:  3869  HIT %:     0  MISS %:   100  AVERAGE MISS PENALTY: 1292.8
LLC7 RFO       ACCESS:     0  HIT:     0  MISS:     0  HIT %:     0  MISS %:     0  AVERAGE MISS PENALTY: 0
LLC7 PREFETCH  ACCESS: 431624  HIT:   119  MISS: 431505  HIT %: 0.0275703  MISS %: 99.9724  AVERAGE MISS PENALTY: 1190.9
LLC7 WRITEBACK ACCESS: 129762  HIT: 99444  MISS: 30318  HIT %: 76.6357  MISS %: 23.3643  AVERAGE MISS PENALTY: 0
LLC7 PREFETCH  REQUESTED:     0  ISSUED:     0  USEFUL:     4  USELESS: 3475880
 USEFUL LOAD PREFETCHES:          4 PREFETCH ISSUED TO LOWER LEVEL:  327285395  ACCURACY: 1.22217e-06
 TIMELY PREFETCHES:          4 LATE PREFETCHES: 0 DROPPED PREFETCHES: 0
LLC7 AVERAGE MISS LATENCY: 1114.21 cycles
ROI Average ROB Stall Cycles:	23.2357
ROI Total ROB Stalls Cycles:	280444688
ROI TOTAL ROB counter      :	12069540
ROI Average Load ROB Stall Cycles:	98.7399
ROI Total Load ROB Stalls Cycle  :	228419390
ROI Total Load ROB stalls Counter:	2313345
Major fault: 0 Minor fault: 87020








Interconnect Stats 
LINK 0 BW : 0LINK 1 BW : 0LINK 2 BW : 0LINK 3 BW : 0LINK 4 BW : 0LINK 5 BW : 0LINK 6 BW : 0LINK 7 BW : 0
DRAM Statistics
 CHANNEL 0
 RQ ROW_BUFFER_HIT: 8375032  ROW_BUFFER_MISS: 5616801
 DBUS_CONGESTED: 21918154
 WQ ROW_BUFFER_HIT: 188188  ROW_BUFFER_MISS: 3991706  FULL:     0

 CHANNEL 1
 RQ ROW_BUFFER_HIT: 8391975  ROW_BUFFER_MISS: 5613745
 DBUS_CONGESTED: 21918154
 WQ ROW_BUFFER_HIT: 188135  ROW_BUFFER_MISS: 3991263  FULL:     0

 AVG_CONGESTED_CYCLE: 6
DRAM PAGES: 2097152
Allocated PAGES: 696708
L2C destructor called
L1D destructor called
L1I destructor called
STLB destructor called
DTLB destructor called
ITLB destructor called
L2C destructor called
L1D destructor called
L1I destructor called
STLB destructor called
DTLB destructor called
ITLB destructor called
L2C destructor called
L1D destructor called
L1I destructor called
STLB destructor called
DTLB destructor called
ITLB destructor called
L2C destructor called
L1D destructor called
L1I destructor called
STLB destructor called
DTLB destructor called
ITLB destructor called
L2C destructor called
L1D destructor called
L1I destructor called
STLB destructor called
DTLB destructor called
ITLB destructor called
L2C destructor called
L1D destructor called
L1I destructor called
STLB destructor called
DTLB destructor called
ITLB destructor called
L2C destructor called
L1D destructor called
L1I destructor called
STLB destructor called
DTLB destructor called
ITLB destructor called
L2C destructor called
L1D destructor called
L1I destructor called
STLB destructor called
DTLB destructor called
ITLB destructor called
