
*** ChampSim Multicore Out-of-Order Simulator ***

Warmup Instructions: 200000000
Simulation Instructions: 200000000
Number of CPUs: 8
threads:1

L1I Configuration:
L1I_SET:64
L1I_WAY:8
L1I_RQ_SIZE:64
L1I_WQ_SIZE:64
L1I_PQ_SIZE:8
L1I_MSHR_SIZE:8

L1D Configuration:
L1D_SET:64
L1D_WAY:12
L1D_RQ_SIZE:64
L1D_WQ_SIZE:64
L1D_PQ_SIZE:8
L1D_MSHR_SIZE:16

L2C Configuration:
L2C_SET:1024
L2C_WAY:8
L2C_RQ_SIZE:32
L2C_WQ_SIZE:32
L2C_PQ_SIZE:16
L2C_MSHR_SIZE:32

LLC Configuration:
LLC_SET:2048
LLC_WAY:16
LLC SLICES:8
LLC_RQ_SIZE:64
LLC_WQ_SIZE:64
LLC_PQ_SIZE:32
LLC_MSHR_SIZE:64

Interconnect OFF
Attacker deprioritize is: OFF
Off-chip DRAM Size: 8192 MB Channels: 2 Width: 64-bit Data Rate: 3200 MT/s
PAGE SIZE in KB: 4.000000 
PAGE SIZE in MB: 0.003906 
PAGE offset in bits: 12 
CEASER-S_LLC:0
MIRAGE : 1
CEASER_LATENCY:3
REMAP : OFF
Partitions : 1
Multi-Step : OFF
BFS : OFF

CPU 0 runs /home/anubhav/spec_2017/649.fotonik3d_s-8225B.champsimtrace.xz
CPU 1 runs /home/anubhav/spec_2017/649.fotonik3d_s-8225B.champsimtrace.xz
CPU 2 runs /home/anubhav/spec_2017/649.fotonik3d_s-8225B.champsimtrace.xz
CPU 3 runs /home/anubhav/spec_2017/649.fotonik3d_s-8225B.champsimtrace.xz
CPU 4 runs /home/anubhav/spec_2017/649.fotonik3d_s-8225B.champsimtrace.xz
CPU 5 runs /home/anubhav/spec_2017/649.fotonik3d_s-8225B.champsimtrace.xz
CPU 6 runs /home/anubhav/spec_2017/649.fotonik3d_s-8225B.champsimtrace.xz
CPU 7 runs /home/anubhav/spec_2017/649.fotonik3d_s-8225B.champsimtrace.xz
CPU 0 Bimodal branch predictor
Initialize Hawkeye state
Initialize Hawkeye state
Initialize Hawkeye state
Initialize Hawkeye state
Initialize Hawkeye state
Initialize Hawkeye state
Initialize Hawkeye state
Initialize Hawkeye state
CPU 1 Bimodal branch predictor
Initialize Hawkeye state
Initialize Hawkeye state
Initialize Hawkeye state
Initialize Hawkeye state
Initialize Hawkeye state
Initialize Hawkeye state
Initialize Hawkeye state
Initialize Hawkeye state
CPU 2 Bimodal branch predictor
Initialize Hawkeye state
Initialize Hawkeye state
Initialize Hawkeye state
Initialize Hawkeye state
Initialize Hawkeye state
Initialize Hawkeye state
Initialize Hawkeye state
Initialize Hawkeye state
CPU 3 Bimodal branch predictor
Initialize Hawkeye state
Initialize Hawkeye state
Initialize Hawkeye state
Initialize Hawkeye state
Initialize Hawkeye state
Initialize Hawkeye state
Initialize Hawkeye state
Initialize Hawkeye state
CPU 4 Bimodal branch predictor
Initialize Hawkeye state
Initialize Hawkeye state
Initialize Hawkeye state
Initialize Hawkeye state
Initialize Hawkeye state
Initialize Hawkeye state
Initialize Hawkeye state
Initialize Hawkeye state
CPU 5 Bimodal branch predictor
Initialize Hawkeye state
Initialize Hawkeye state
Initialize Hawkeye state
Initialize Hawkeye state
Initialize Hawkeye state
Initialize Hawkeye state
Initialize Hawkeye state
Initialize Hawkeye state
CPU 6 Bimodal branch predictor
Initialize Hawkeye state
Initialize Hawkeye state
Initialize Hawkeye state
Initialize Hawkeye state
Initialize Hawkeye state
Initialize Hawkeye state
Initialize Hawkeye state
Initialize Hawkeye state
CPU 7 Bimodal branch predictor
Initialize Hawkeye state
Initialize Hawkeye state
Initialize Hawkeye state
Initialize Hawkeye state
Initialize Hawkeye state
Initialize Hawkeye state
Initialize Hawkeye state
Initialize Hawkeye state
Heartbeat CPU 1 instructions: 10000003 cycles: 4250799 heartbeat IPC: 2.3525 cumulative IPC: 2.3525 (Simulation time: 0 hr 25 min 13 sec) 
 Total Blocks : 262144 Invalid Blocks : 12250
Heartbeat CPU 2 instructions: 10000003 cycles: 4250821 heartbeat IPC: 2.35249 cumulative IPC: 2.35249 (Simulation time: 0 hr 25 min 13 sec) 
 Total Blocks : 262144 Invalid Blocks : 12250
Heartbeat CPU 5 instructions: 10000003 cycles: 4250846 heartbeat IPC: 2.35247 cumulative IPC: 2.35247 (Simulation time: 0 hr 25 min 13 sec) 
 Total Blocks : 262144 Invalid Blocks : 12250
Heartbeat CPU 0 instructions: 10000003 cycles: 4250850 heartbeat IPC: 2.35247 cumulative IPC: 2.35247 (Simulation time: 0 hr 25 min 13 sec) 
 Total Blocks : 262144 Invalid Blocks : 12250
Heartbeat CPU 4 instructions: 10000003 cycles: 4250867 heartbeat IPC: 2.35246 cumulative IPC: 2.35246 (Simulation time: 0 hr 25 min 13 sec) 
 Total Blocks : 262144 Invalid Blocks : 12250
Heartbeat CPU 6 instructions: 10000003 cycles: 4250888 heartbeat IPC: 2.35245 cumulative IPC: 2.35245 (Simulation time: 0 hr 25 min 13 sec) 
 Total Blocks : 262144 Invalid Blocks : 12250
Heartbeat CPU 7 instructions: 10000003 cycles: 4250889 heartbeat IPC: 2.35245 cumulative IPC: 2.35245 (Simulation time: 0 hr 25 min 13 sec) 
 Total Blocks : 262144 Invalid Blocks : 12250
Heartbeat CPU 3 instructions: 10000003 cycles: 4250900 heartbeat IPC: 2.35244 cumulative IPC: 2.35244 (Simulation time: 0 hr 25 min 13 sec) 
 Total Blocks : 262144 Invalid Blocks : 12250
Heartbeat CPU 2 instructions: 20000002 cycles: 8501497 heartbeat IPC: 2.35257 cumulative IPC: 2.35253 (Simulation time: 0 hr 52 min 2 sec) 
 Total Blocks : 262144 Invalid Blocks : 590
Heartbeat CPU 1 instructions: 20000002 cycles: 8501515 heartbeat IPC: 2.35254 cumulative IPC: 2.35252 (Simulation time: 0 hr 52 min 2 sec) 
 Total Blocks : 262144 Invalid Blocks : 590
Heartbeat CPU 5 instructions: 20000002 cycles: 8501568 heartbeat IPC: 2.35254 cumulative IPC: 2.35251 (Simulation time: 0 hr 52 min 2 sec) 
 Total Blocks : 262144 Invalid Blocks : 590
Heartbeat CPU 4 instructions: 20000002 cycles: 8501569 heartbeat IPC: 2.35255 cumulative IPC: 2.35251 (Simulation time: 0 hr 52 min 2 sec) 
 Total Blocks : 262144 Invalid Blocks : 590
Heartbeat CPU 0 instructions: 20000002 cycles: 8501580 heartbeat IPC: 2.35254 cumulative IPC: 2.3525 (Simulation time: 0 hr 52 min 2 sec) 
 Total Blocks : 262144 Invalid Blocks : 590
Heartbeat CPU 6 instructions: 20000002 cycles: 8501582 heartbeat IPC: 2.35256 cumulative IPC: 2.3525 (Simulation time: 0 hr 52 min 2 sec) 
 Total Blocks : 262144 Invalid Blocks : 590
Heartbeat CPU 7 instructions: 20000002 cycles: 8501609 heartbeat IPC: 2.35254 cumulative IPC: 2.3525 (Simulation time: 0 hr 52 min 2 sec) 
 Total Blocks : 262144 Invalid Blocks : 590
Heartbeat CPU 3 instructions: 20000002 cycles: 8501621 heartbeat IPC: 2.35254 cumulative IPC: 2.35249 (Simulation time: 0 hr 52 min 2 sec) 
 Total Blocks : 262144 Invalid Blocks : 590
Heartbeat CPU 2 instructions: 30000000 cycles: 12752191 heartbeat IPC: 2.35256 cumulative IPC: 2.35254 (Simulation time: 1 hr 21 min 6 sec) 
 Total Blocks : 262144 Invalid Blocks : 27
Heartbeat CPU 5 instructions: 30000000 cycles: 12752204 heartbeat IPC: 2.35259 cumulative IPC: 2.35253 (Simulation time: 1 hr 21 min 6 sec) 
 Total Blocks : 262144 Invalid Blocks : 27
Heartbeat CPU 1 instructions: 30000000 cycles: 12752216 heartbeat IPC: 2.35255 cumulative IPC: 2.35253 (Simulation time: 1 hr 21 min 6 sec) 
 Total Blocks : 262144 Invalid Blocks : 27
Heartbeat CPU 0 instructions: 30000000 cycles: 12752251 heartbeat IPC: 2.35257 cumulative IPC: 2.35253 (Simulation time: 1 hr 21 min 6 sec) 
 Total Blocks : 262144 Invalid Blocks : 27
Heartbeat CPU 7 instructions: 30000000 cycles: 12752256 heartbeat IPC: 2.35258 cumulative IPC: 2.35252 (Simulation time: 1 hr 21 min 6 sec) 
 Total Blocks : 262144 Invalid Blocks : 27
Heartbeat CPU 6 instructions: 30000000 cycles: 12752264 heartbeat IPC: 2.35256 cumulative IPC: 2.35252 (Simulation time: 1 hr 21 min 6 sec) 
 Total Blocks : 262144 Invalid Blocks : 27
Heartbeat CPU 4 instructions: 30000000 cycles: 12752266 heartbeat IPC: 2.35255 cumulative IPC: 2.35252 (Simulation time: 1 hr 21 min 6 sec) 
 Total Blocks : 262144 Invalid Blocks : 27
Heartbeat CPU 3 instructions: 30000000 cycles: 12752308 heartbeat IPC: 2.35256 cumulative IPC: 2.35252 (Simulation time: 1 hr 21 min 6 sec) 
 Total Blocks : 262144 Invalid Blocks : 27
Heartbeat CPU 5 instructions: 40000002 cycles: 17002859 heartbeat IPC: 2.35258 cumulative IPC: 2.35255 (Simulation time: 1 hr 53 min 3 sec) 
 Total Blocks : 262144 Invalid Blocks : 2
Heartbeat CPU 2 instructions: 40000002 cycles: 17002863 heartbeat IPC: 2.35257 cumulative IPC: 2.35255 (Simulation time: 1 hr 53 min 3 sec) 
 Total Blocks : 262144 Invalid Blocks : 2
Heartbeat CPU 1 instructions: 40000002 cycles: 17002892 heartbeat IPC: 2.35257 cumulative IPC: 2.35254 (Simulation time: 1 hr 53 min 3 sec) 
 Total Blocks : 262144 Invalid Blocks : 2
Heartbeat CPU 4 instructions: 40000002 cycles: 17002893 heartbeat IPC: 2.35259 cumulative IPC: 2.35254 (Simulation time: 1 hr 53 min 3 sec) 
 Total Blocks : 262144 Invalid Blocks : 2
Heartbeat CPU 0 instructions: 40000002 cycles: 17002894 heartbeat IPC: 2.35259 cumulative IPC: 2.35254 (Simulation time: 1 hr 53 min 3 sec) 
 Total Blocks : 262144 Invalid Blocks : 2
Heartbeat CPU 3 instructions: 40000002 cycles: 17002921 heartbeat IPC: 2.3526 cumulative IPC: 2.35254 (Simulation time: 1 hr 53 min 3 sec) 
 Total Blocks : 262144 Invalid Blocks : 2
Heartbeat CPU 7 instructions: 40000002 cycles: 17002925 heartbeat IPC: 2.35257 cumulative IPC: 2.35254 (Simulation time: 1 hr 53 min 3 sec) 
 Total Blocks : 262144 Invalid Blocks : 2
Heartbeat CPU 6 instructions: 40000002 cycles: 17002937 heartbeat IPC: 2.35257 cumulative IPC: 2.35253 (Simulation time: 1 hr 53 min 3 sec) 
 Total Blocks : 262144 Invalid Blocks : 2
Heartbeat CPU 2 instructions: 50000001 cycles: 21253309 heartbeat IPC: 2.35269 cumulative IPC: 2.35257 (Simulation time: 2 hr 26 min 15 sec) 
 Total Blocks : 262144 Invalid Blocks : 0
Heartbeat CPU 0 instructions: 50000001 cycles: 21253316 heartbeat IPC: 2.35271 cumulative IPC: 2.35257 (Simulation time: 2 hr 26 min 15 sec) 
 Total Blocks : 262144 Invalid Blocks : 0
Heartbeat CPU 5 instructions: 50000001 cycles: 21253341 heartbeat IPC: 2.35267 cumulative IPC: 2.35257 (Simulation time: 2 hr 26 min 15 sec) 
 Total Blocks : 262144 Invalid Blocks : 0
Heartbeat CPU 1 instructions: 50000001 cycles: 21253369 heartbeat IPC: 2.35268 cumulative IPC: 2.35257 (Simulation time: 2 hr 26 min 15 sec) 
 Total Blocks : 262144 Invalid Blocks : 0
Heartbeat CPU 4 instructions: 50000001 cycles: 21253381 heartbeat IPC: 2.35267 cumulative IPC: 2.35257 (Simulation time: 2 hr 26 min 15 sec) 
 Total Blocks : 262144 Invalid Blocks : 0
Heartbeat CPU 3 instructions: 50000001 cycles: 21253395 heartbeat IPC: 2.35268 cumulative IPC: 2.35257 (Simulation time: 2 hr 26 min 15 sec) 
 Total Blocks : 262144 Invalid Blocks : 0
Heartbeat CPU 7 instructions: 50000001 cycles: 21253416 heartbeat IPC: 2.35267 cumulative IPC: 2.35256 (Simulation time: 2 hr 26 min 15 sec) 
 Total Blocks : 262144 Invalid Blocks : 0
Heartbeat CPU 6 instructions: 50000001 cycles: 21253468 heartbeat IPC: 2.35265 cumulative IPC: 2.35256 (Simulation time: 2 hr 26 min 15 sec) 
 Total Blocks : 262144 Invalid Blocks : 0
Heartbeat CPU 0 instructions: 60000003 cycles: 25504047 heartbeat IPC: 2.35254 cumulative IPC: 2.35257 (Simulation time: 3 hr 2 min 15 sec) 
 Total Blocks : 262144 Invalid Blocks : 0
Heartbeat CPU 2 instructions: 60000003 cycles: 25504068 heartbeat IPC: 2.35252 cumulative IPC: 2.35257 (Simulation time: 3 hr 2 min 15 sec) 
 Total Blocks : 262144 Invalid Blocks : 0
Heartbeat CPU 1 instructions: 60000003 cycles: 25504101 heartbeat IPC: 2.35254 cumulative IPC: 2.35256 (Simulation time: 3 hr 2 min 15 sec) 
 Total Blocks : 262144 Invalid Blocks : 0
Heartbeat CPU 5 instructions: 60000003 cycles: 25504103 heartbeat IPC: 2.35252 cumulative IPC: 2.35256 (Simulation time: 3 hr 2 min 15 sec) 
 Total Blocks : 262144 Invalid Blocks : 0
Heartbeat CPU 4 instructions: 60000003 cycles: 25504141 heartbeat IPC: 2.35252 cumulative IPC: 2.35256 (Simulation time: 3 hr 2 min 15 sec) 
 Total Blocks : 262144 Invalid Blocks : 0
Heartbeat CPU 3 instructions: 60000003 cycles: 25504142 heartbeat IPC: 2.35253 cumulative IPC: 2.35256 (Simulation time: 3 hr 2 min 15 sec) 
 Total Blocks : 262144 Invalid Blocks : 0
Heartbeat CPU 7 instructions: 60000003 cycles: 25504173 heartbeat IPC: 2.35252 cumulative IPC: 2.35256 (Simulation time: 3 hr 2 min 15 sec) 
 Total Blocks : 262144 Invalid Blocks : 0
Heartbeat CPU 6 instructions: 60000003 cycles: 25504207 heartbeat IPC: 2.35253 cumulative IPC: 2.35255 (Simulation time: 3 hr 2 min 15 sec) 
 Total Blocks : 262144 Invalid Blocks : 0
Heartbeat CPU 0 instructions: 70000001 cycles: 29754784 heartbeat IPC: 2.35253 cumulative IPC: 2.35256 (Simulation time: 3 hr 40 min 29 sec) 
 Total Blocks : 262144 Invalid Blocks : 0
Heartbeat CPU 2 instructions: 70000001 cycles: 29754843 heartbeat IPC: 2.35251 cumulative IPC: 2.35256 (Simulation time: 3 hr 40 min 29 sec) 
 Total Blocks : 262144 Invalid Blocks : 0
Heartbeat CPU 5 instructions: 70000001 cycles: 29754845 heartbeat IPC: 2.35253 cumulative IPC: 2.35256 (Simulation time: 3 hr 40 min 29 sec) 
 Total Blocks : 262144 Invalid Blocks : 0
Heartbeat CPU 1 instructions: 70000001 cycles: 29754870 heartbeat IPC: 2.35251 cumulative IPC: 2.35256 (Simulation time: 3 hr 40 min 29 sec) 
 Total Blocks : 262144 Invalid Blocks : 0
Heartbeat CPU 4 instructions: 70000001 cycles: 29754883 heartbeat IPC: 2.35253 cumulative IPC: 2.35256 (Simulation time: 3 hr 40 min 29 sec) 
 Total Blocks : 262144 Invalid Blocks : 0
Heartbeat CPU 7 instructions: 70000001 cycles: 29754896 heartbeat IPC: 2.35254 cumulative IPC: 2.35255 (Simulation time: 3 hr 40 min 29 sec) 
 Total Blocks : 262144 Invalid Blocks : 0
Heartbeat CPU 3 instructions: 70000001 cycles: 29754946 heartbeat IPC: 2.3525 cumulative IPC: 2.35255 (Simulation time: 3 hr 40 min 29 sec) 
 Total Blocks : 262144 Invalid Blocks : 0
Heartbeat CPU 6 instructions: 70000001 cycles: 29754971 heartbeat IPC: 2.35252 cumulative IPC: 2.35255 (Simulation time: 3 hr 40 min 29 sec) 
 Total Blocks : 262144 Invalid Blocks : 0
Heartbeat CPU 0 instructions: 80000001 cycles: 34005309 heartbeat IPC: 2.35265 cumulative IPC: 2.35257 (Simulation time: 4 hr 20 min 33 sec) 
 Total Blocks : 262144 Invalid Blocks : 0
Heartbeat CPU 2 instructions: 80000001 cycles: 34005415 heartbeat IPC: 2.35262 cumulative IPC: 2.35257 (Simulation time: 4 hr 20 min 33 sec) 
 Total Blocks : 262144 Invalid Blocks : 0
Heartbeat CPU 5 instructions: 80000001 cycles: 34005425 heartbeat IPC: 2.35262 cumulative IPC: 2.35257 (Simulation time: 4 hr 20 min 33 sec) 
 Total Blocks : 262144 Invalid Blocks : 0
Heartbeat CPU 7 instructions: 80000001 cycles: 34005437 heartbeat IPC: 2.35264 cumulative IPC: 2.35257 (Simulation time: 4 hr 20 min 33 sec) 
 Total Blocks : 262144 Invalid Blocks : 0
Heartbeat CPU 1 instructions: 80000001 cycles: 34005467 heartbeat IPC: 2.35261 cumulative IPC: 2.35256 (Simulation time: 4 hr 20 min 33 sec) 
 Total Blocks : 262144 Invalid Blocks : 0
Heartbeat CPU 3 instructions: 80000001 cycles: 34005490 heartbeat IPC: 2.35264 cumulative IPC: 2.35256 (Simulation time: 4 hr 20 min 33 sec) 
 Total Blocks : 262144 Invalid Blocks : 0
Heartbeat CPU 4 instructions: 80000001 cycles: 34005502 heartbeat IPC: 2.3526 cumulative IPC: 2.35256 (Simulation time: 4 hr 20 min 33 sec) 
 Total Blocks : 262144 Invalid Blocks : 0
Heartbeat CPU 6 instructions: 80000001 cycles: 34005533 heartbeat IPC: 2.35263 cumulative IPC: 2.35256 (Simulation time: 4 hr 20 min 33 sec) 
 Total Blocks : 262144 Invalid Blocks : 0
Heartbeat CPU 0 instructions: 90000000 cycles: 38255986 heartbeat IPC: 2.35257 cumulative IPC: 2.35257 (Simulation time: 5 hr 2 min 3 sec) 
 Total Blocks : 262144 Invalid Blocks : 0
Heartbeat CPU 2 instructions: 90000000 cycles: 38256085 heartbeat IPC: 2.35257 cumulative IPC: 2.35257 (Simulation time: 5 hr 2 min 3 sec) 
 Total Blocks : 262144 Invalid Blocks : 0
Heartbeat CPU 4 instructions: 90000000 cycles: 38256096 heartbeat IPC: 2.35261 cumulative IPC: 2.35257 (Simulation time: 5 hr 2 min 3 sec) 
 Total Blocks : 262144 Invalid Blocks : 0
Heartbeat CPU 7 instructions: 90000000 cycles: 38256098 heartbeat IPC: 2.35258 cumulative IPC: 2.35257 (Simulation time: 5 hr 2 min 3 sec) 
 Total Blocks : 262144 Invalid Blocks : 0
Heartbeat CPU 5 instructions: 90000000 cycles: 38256127 heartbeat IPC: 2.35255 cumulative IPC: 2.35256 (Simulation time: 5 hr 2 min 3 sec) 
 Total Blocks : 262144 Invalid Blocks : 0
Heartbeat CPU 3 instructions: 90000000 cycles: 38256142 heartbeat IPC: 2.35258 cumulative IPC: 2.35256 (Simulation time: 5 hr 2 min 3 sec) 
 Total Blocks : 262144 Invalid Blocks : 0
Heartbeat CPU 1 instructions: 90000000 cycles: 38256144 heartbeat IPC: 2.35257 cumulative IPC: 2.35256 (Simulation time: 5 hr 2 min 3 sec) 
 Total Blocks : 262144 Invalid Blocks : 0
Heartbeat CPU 6 instructions: 90000000 cycles: 38256223 heartbeat IPC: 2.35256 cumulative IPC: 2.35256 (Simulation time: 5 hr 2 min 3 sec) 
 Total Blocks : 262144 Invalid Blocks : 0
Heartbeat CPU 0 instructions: 100000000 cycles: 42506722 heartbeat IPC: 2.35253 cumulative IPC: 2.35257 (Simulation time: 5 hr 45 min 49 sec) 
 Total Blocks : 262144 Invalid Blocks : 0
Heartbeat CPU 2 instructions: 100000000 cycles: 42506761 heartbeat IPC: 2.35257 cumulative IPC: 2.35257 (Simulation time: 5 hr 45 min 49 sec) 
 Total Blocks : 262144 Invalid Blocks : 0
Heartbeat CPU 7 instructions: 100000000 cycles: 42506778 heartbeat IPC: 2.35256 cumulative IPC: 2.35257 (Simulation time: 5 hr 45 min 49 sec) 
 Total Blocks : 262144 Invalid Blocks : 0
Heartbeat CPU 5 instructions: 100000000 cycles: 42506810 heartbeat IPC: 2.35256 cumulative IPC: 2.35256 (Simulation time: 5 hr 45 min 49 sec) 
 Total Blocks : 262144 Invalid Blocks : 0
Heartbeat CPU 4 instructions: 100000000 cycles: 42506831 heartbeat IPC: 2.35253 cumulative IPC: 2.35256 (Simulation time: 5 hr 45 min 49 sec) 
 Total Blocks : 262144 Invalid Blocks : 0
Heartbeat CPU 3 instructions: 100000000 cycles: 42506854 heartbeat IPC: 2.35255 cumulative IPC: 2.35256 (Simulation time: 5 hr 45 min 49 sec) 
 Total Blocks : 262144 Invalid Blocks : 0
Heartbeat CPU 1 instructions: 100000000 cycles: 42506874 heartbeat IPC: 2.35254 cumulative IPC: 2.35256 (Simulation time: 5 hr 45 min 49 sec) 
 Total Blocks : 262144 Invalid Blocks : 0
Heartbeat CPU 6 instructions: 100000000 cycles: 42506933 heartbeat IPC: 2.35255 cumulative IPC: 2.35256 (Simulation time: 5 hr 45 min 49 sec) 
 Total Blocks : 262144 Invalid Blocks : 0
Heartbeat CPU 2 instructions: 110000000 cycles: 46757368 heartbeat IPC: 2.35261 cumulative IPC: 2.35257 (Simulation time: 6 hr 31 min 51 sec) 
 Total Blocks : 262144 Invalid Blocks : 0
Heartbeat CPU 0 instructions: 110000000 cycles: 46757377 heartbeat IPC: 2.35258 cumulative IPC: 2.35257 (Simulation time: 6 hr 31 min 51 sec) 
 Total Blocks : 262144 Invalid Blocks : 0
Heartbeat CPU 7 instructions: 110000000 cycles: 46757448 heartbeat IPC: 2.35257 cumulative IPC: 2.35257 (Simulation time: 6 hr 31 min 51 sec) 
 Total Blocks : 262144 Invalid Blocks : 0
Heartbeat CPU 4 instructions: 110000000 cycles: 46757456 heartbeat IPC: 2.3526 cumulative IPC: 2.35257 (Simulation time: 6 hr 31 min 51 sec) 
 Total Blocks : 262144 Invalid Blocks : 0
Heartbeat CPU 5 instructions: 110000000 cycles: 46757481 heartbeat IPC: 2.35257 cumulative IPC: 2.35256 (Simulation time: 6 hr 31 min 51 sec) 
 Total Blocks : 262144 Invalid Blocks : 0
Heartbeat CPU 3 instructions: 110000000 cycles: 46757503 heartbeat IPC: 2.35258 cumulative IPC: 2.35256 (Simulation time: 6 hr 31 min 51 sec) 
 Total Blocks : 262144 Invalid Blocks : 0
Heartbeat CPU 1 instructions: 110000000 cycles: 46757515 heartbeat IPC: 2.35259 cumulative IPC: 2.35256 (Simulation time: 6 hr 31 min 51 sec) 
 Total Blocks : 262144 Invalid Blocks : 0
Heartbeat CPU 6 instructions: 110000000 cycles: 46757551 heartbeat IPC: 2.3526 cumulative IPC: 2.35256 (Simulation time: 6 hr 31 min 51 sec) 
 Total Blocks : 262144 Invalid Blocks : 0
Heartbeat CPU 2 instructions: 120000003 cycles: 51008062 heartbeat IPC: 2.35256 cumulative IPC: 2.35257 (Simulation time: 7 hr 20 min 56 sec) 
 Total Blocks : 262144 Invalid Blocks : 0
Heartbeat CPU 4 instructions: 120000003 cycles: 51008100 heartbeat IPC: 2.35259 cumulative IPC: 2.35257 (Simulation time: 7 hr 20 min 56 sec) 
 Total Blocks : 262144 Invalid Blocks : 0
Heartbeat CPU 0 instructions: 120000003 cycles: 51008117 heartbeat IPC: 2.35253 cumulative IPC: 2.35257 (Simulation time: 7 hr 20 min 56 sec) 
 Total Blocks : 262144 Invalid Blocks : 0
Heartbeat CPU 7 instructions: 120000003 cycles: 51008122 heartbeat IPC: 2.35257 cumulative IPC: 2.35257 (Simulation time: 7 hr 20 min 56 sec) 
 Total Blocks : 262144 Invalid Blocks : 0
Heartbeat CPU 1 instructions: 120000003 cycles: 51008153 heartbeat IPC: 2.35259 cumulative IPC: 2.35257 (Simulation time: 7 hr 20 min 56 sec) 
 Total Blocks : 262144 Invalid Blocks : 0
Heartbeat CPU 5 instructions: 120000003 cycles: 51008189 heartbeat IPC: 2.35255 cumulative IPC: 2.35256 (Simulation time: 7 hr 20 min 56 sec) 
 Total Blocks : 262144 Invalid Blocks : 0
Heartbeat CPU 6 instructions: 120000003 cycles: 51008211 heartbeat IPC: 2.35258 cumulative IPC: 2.35256 (Simulation time: 7 hr 20 min 56 sec) 
 Total Blocks : 262144 Invalid Blocks : 0
Heartbeat CPU 3 instructions: 120000003 cycles: 51008220 heartbeat IPC: 2.35255 cumulative IPC: 2.35256 (Simulation time: 7 hr 20 min 56 sec) 
 Total Blocks : 262144 Invalid Blocks : 0
Heartbeat CPU 2 instructions: 130000003 cycles: 55258796 heartbeat IPC: 2.35253 cumulative IPC: 2.35257 (Simulation time: 8 hr 11 min 45 sec) 
 Total Blocks : 262144 Invalid Blocks : 0
Heartbeat CPU 4 instructions: 130000003 cycles: 55258821 heartbeat IPC: 2.35254 cumulative IPC: 2.35257 (Simulation time: 8 hr 11 min 45 sec) 
 Total Blocks : 262144 Invalid Blocks : 0
Heartbeat CPU 0 instructions: 130000003 cycles: 55258829 heartbeat IPC: 2.35255 cumulative IPC: 2.35257 (Simulation time: 8 hr 11 min 45 sec) 
 Total Blocks : 262144 Invalid Blocks : 0
Heartbeat CPU 1 instructions: 130000003 cycles: 55258833 heartbeat IPC: 2.35256 cumulative IPC: 2.35257 (Simulation time: 8 hr 11 min 45 sec) 
 Total Blocks : 262144 Invalid Blocks : 0
Heartbeat CPU 5 instructions: 130000003 cycles: 55258870 heartbeat IPC: 2.35256 cumulative IPC: 2.35256 (Simulation time: 8 hr 11 min 45 sec) 
 Total Blocks : 262144 Invalid Blocks : 0
Heartbeat CPU 7 instructions: 130000003 cycles: 55258877 heartbeat IPC: 2.35252 cumulative IPC: 2.35256 (Simulation time: 8 hr 11 min 45 sec) 
 Total Blocks : 262144 Invalid Blocks : 0
Heartbeat CPU 6 instructions: 130000003 cycles: 55258888 heartbeat IPC: 2.35257 cumulative IPC: 2.35256 (Simulation time: 8 hr 11 min 45 sec) 
 Total Blocks : 262144 Invalid Blocks : 0
Heartbeat CPU 3 instructions: 130000003 cycles: 55258900 heartbeat IPC: 2.35256 cumulative IPC: 2.35256 (Simulation time: 8 hr 11 min 45 sec) 
 Total Blocks : 262144 Invalid Blocks : 0
Heartbeat CPU 2 instructions: 140000000 cycles: 59509340 heartbeat IPC: 2.35264 cumulative IPC: 2.35257 (Simulation time: 9 hr 4 min 39 sec) 
 Total Blocks : 262144 Invalid Blocks : 0
Heartbeat CPU 0 instructions: 140000000 cycles: 59509392 heartbeat IPC: 2.35263 cumulative IPC: 2.35257 (Simulation time: 9 hr 4 min 39 sec) 
 Total Blocks : 262144 Invalid Blocks : 0
Heartbeat CPU 4 instructions: 140000000 cycles: 59509394 heartbeat IPC: 2.35262 cumulative IPC: 2.35257 (Simulation time: 9 hr 4 min 39 sec) 
 Total Blocks : 262144 Invalid Blocks : 0
Heartbeat CPU 1 instructions: 140000000 cycles: 59509424 heartbeat IPC: 2.35261 cumulative IPC: 2.35257 (Simulation time: 9 hr 4 min 39 sec) 
 Total Blocks : 262144 Invalid Blocks : 0
Heartbeat CPU 5 instructions: 140000000 cycles: 59509463 heartbeat IPC: 2.35261 cumulative IPC: 2.35257 (Simulation time: 9 hr 4 min 39 sec) 
 Total Blocks : 262144 Invalid Blocks : 0
Heartbeat CPU 7 instructions: 140000000 cycles: 59509490 heartbeat IPC: 2.3526 cumulative IPC: 2.35257 (Simulation time: 9 hr 4 min 39 sec) 
 Total Blocks : 262144 Invalid Blocks : 0
Heartbeat CPU 6 instructions: 140000000 cycles: 59509495 heartbeat IPC: 2.3526 cumulative IPC: 2.35257 (Simulation time: 9 hr 4 min 39 sec) 
 Total Blocks : 262144 Invalid Blocks : 0
Heartbeat CPU 3 instructions: 140000000 cycles: 59509499 heartbeat IPC: 2.35261 cumulative IPC: 2.35257 (Simulation time: 9 hr 4 min 39 sec) 
 Total Blocks : 262144 Invalid Blocks : 0
Heartbeat CPU 0 instructions: 150000000 cycles: 63760014 heartbeat IPC: 2.3526 cumulative IPC: 2.35257 (Simulation time: 9 hr 58 min 5 sec) 
 Total Blocks : 262144 Invalid Blocks : 0
Heartbeat CPU 2 instructions: 150000000 cycles: 63760025 heartbeat IPC: 2.35256 cumulative IPC: 2.35257 (Simulation time: 9 hr 58 min 5 sec) 
 Total Blocks : 262144 Invalid Blocks : 0
Heartbeat CPU 4 instructions: 150000000 cycles: 63760081 heartbeat IPC: 2.35256 cumulative IPC: 2.35257 (Simulation time: 9 hr 58 min 6 sec) 
 Total Blocks : 262144 Invalid Blocks : 0
Heartbeat CPU 1 instructions: 150000000 cycles: 63760088 heartbeat IPC: 2.35257 cumulative IPC: 2.35257 (Simulation time: 9 hr 58 min 6 sec) 
 Total Blocks : 262144 Invalid Blocks : 0
Heartbeat CPU 5 instructions: 150000000 cycles: 63760110 heartbeat IPC: 2.35258 cumulative IPC: 2.35257 (Simulation time: 9 hr 58 min 6 sec) 
 Total Blocks : 262144 Invalid Blocks : 0
Heartbeat CPU 7 instructions: 150000000 cycles: 63760120 heartbeat IPC: 2.35259 cumulative IPC: 2.35257 (Simulation time: 9 hr 58 min 6 sec) 
 Total Blocks : 262144 Invalid Blocks : 0
Heartbeat CPU 3 instructions: 150000000 cycles: 63760166 heartbeat IPC: 2.35257 cumulative IPC: 2.35257 (Simulation time: 9 hr 58 min 6 sec) 
 Total Blocks : 262144 Invalid Blocks : 0
Heartbeat CPU 6 instructions: 150000000 cycles: 63760169 heartbeat IPC: 2.35257 cumulative IPC: 2.35257 (Simulation time: 9 hr 58 min 6 sec) 
 Total Blocks : 262144 Invalid Blocks : 0
Heartbeat CPU 0 instructions: 160000001 cycles: 68010758 heartbeat IPC: 2.35253 cumulative IPC: 2.35257 (Simulation time: 10 hr 52 min 4 sec) 
 Total Blocks : 262144 Invalid Blocks : 0
Heartbeat CPU 2 instructions: 160000001 cycles: 68010806 heartbeat IPC: 2.35251 cumulative IPC: 2.35257 (Simulation time: 10 hr 52 min 4 sec) 
 Total Blocks : 262144 Invalid Blocks : 0
Heartbeat CPU 1 instructions: 160000001 cycles: 68010846 heartbeat IPC: 2.35252 cumulative IPC: 2.35257 (Simulation time: 10 hr 52 min 5 sec) 
 Total Blocks : 262144 Invalid Blocks : 0
Heartbeat CPU 4 instructions: 160000001 cycles: 68010872 heartbeat IPC: 2.3525 cumulative IPC: 2.35257 (Simulation time: 10 hr 52 min 5 sec) 
 Total Blocks : 262144 Invalid Blocks : 0
Heartbeat CPU 5 instructions: 160000001 cycles: 68010913 heartbeat IPC: 2.3525 cumulative IPC: 2.35256 (Simulation time: 10 hr 52 min 5 sec) 
 Total Blocks : 262144 Invalid Blocks : 0
Heartbeat CPU 6 instructions: 160000001 cycles: 68010916 heartbeat IPC: 2.35253 cumulative IPC: 2.35256 (Simulation time: 10 hr 52 min 5 sec) 
 Total Blocks : 262144 Invalid Blocks : 0
Heartbeat CPU 7 instructions: 160000001 cycles: 68010924 heartbeat IPC: 2.3525 cumulative IPC: 2.35256 (Simulation time: 10 hr 52 min 5 sec) 
 Total Blocks : 262144 Invalid Blocks : 0
Heartbeat CPU 3 instructions: 160000001 cycles: 68010936 heartbeat IPC: 2.35252 cumulative IPC: 2.35256 (Simulation time: 10 hr 52 min 5 sec) 
 Total Blocks : 262144 Invalid Blocks : 0
Heartbeat CPU 0 instructions: 170000001 cycles: 72261303 heartbeat IPC: 2.35264 cumulative IPC: 2.35257 (Simulation time: 11 hr 45 min 21 sec) 
 Total Blocks : 262144 Invalid Blocks : 0
Heartbeat CPU 2 instructions: 170000001 cycles: 72261358 heartbeat IPC: 2.35264 cumulative IPC: 2.35257 (Simulation time: 11 hr 45 min 21 sec) 
 Total Blocks : 262144 Invalid Blocks : 0
Heartbeat CPU 1 instructions: 170000001 cycles: 72261429 heartbeat IPC: 2.35262 cumulative IPC: 2.35257 (Simulation time: 11 hr 45 min 21 sec) 
 Total Blocks : 262144 Invalid Blocks : 0
Heartbeat CPU 4 instructions: 170000001 cycles: 72261440 heartbeat IPC: 2.35263 cumulative IPC: 2.35257 (Simulation time: 11 hr 45 min 21 sec) 
 Total Blocks : 262144 Invalid Blocks : 0
Heartbeat CPU 5 instructions: 170000001 cycles: 72261464 heartbeat IPC: 2.35264 cumulative IPC: 2.35257 (Simulation time: 11 hr 45 min 21 sec) 
 Total Blocks : 262144 Invalid Blocks : 0
Heartbeat CPU 6 instructions: 170000001 cycles: 72261471 heartbeat IPC: 2.35263 cumulative IPC: 2.35257 (Simulation time: 11 hr 45 min 21 sec) 
 Total Blocks : 262144 Invalid Blocks : 0
Heartbeat CPU 7 instructions: 170000001 cycles: 72261479 heartbeat IPC: 2.35263 cumulative IPC: 2.35257 (Simulation time: 11 hr 45 min 21 sec) 
 Total Blocks : 262144 Invalid Blocks : 0
Heartbeat CPU 3 instructions: 170000001 cycles: 72261520 heartbeat IPC: 2.35262 cumulative IPC: 2.35257 (Simulation time: 11 hr 45 min 21 sec) 
 Total Blocks : 262144 Invalid Blocks : 0
Heartbeat CPU 0 instructions: 180000003 cycles: 76511921 heartbeat IPC: 2.3526 cumulative IPC: 2.35257 (Simulation time: 12 hr 38 min 32 sec) 
 Total Blocks : 262144 Invalid Blocks : 0
Heartbeat CPU 2 instructions: 180000003 cycles: 76511991 heartbeat IPC: 2.35259 cumulative IPC: 2.35257 (Simulation time: 12 hr 38 min 32 sec) 
 Total Blocks : 262144 Invalid Blocks : 0
Heartbeat CPU 4 instructions: 180000003 cycles: 76512015 heartbeat IPC: 2.35262 cumulative IPC: 2.35257 (Simulation time: 12 hr 38 min 32 sec) 
 Total Blocks : 262144 Invalid Blocks : 0
Heartbeat CPU 7 instructions: 180000003 cycles: 76512049 heartbeat IPC: 2.35263 cumulative IPC: 2.35257 (Simulation time: 12 hr 38 min 32 sec) 
 Total Blocks : 262144 Invalid Blocks : 0
Heartbeat CPU 1 instructions: 180000003 cycles: 76512066 heartbeat IPC: 2.35259 cumulative IPC: 2.35257 (Simulation time: 12 hr 38 min 32 sec) 
 Total Blocks : 262144 Invalid Blocks : 0
Heartbeat CPU 5 instructions: 180000003 cycles: 76512074 heartbeat IPC: 2.3526 cumulative IPC: 2.35257 (Simulation time: 12 hr 38 min 32 sec) 
 Total Blocks : 262144 Invalid Blocks : 0
Heartbeat CPU 6 instructions: 180000003 cycles: 76512090 heartbeat IPC: 2.3526 cumulative IPC: 2.35257 (Simulation time: 12 hr 38 min 32 sec) 
 Total Blocks : 262144 Invalid Blocks : 0
Heartbeat CPU 3 instructions: 180000003 cycles: 76512135 heartbeat IPC: 2.3526 cumulative IPC: 2.35257 (Simulation time: 12 hr 38 min 32 sec) 
 Total Blocks : 262144 Invalid Blocks : 0
Heartbeat CPU 0 instructions: 190000002 cycles: 80762676 heartbeat IPC: 2.35252 cumulative IPC: 2.35257 (Simulation time: 13 hr 32 min 35 sec) 
 Total Blocks : 262144 Invalid Blocks : 0
Heartbeat CPU 2 instructions: 190000002 cycles: 80762779 heartbeat IPC: 2.3525 cumulative IPC: 2.35257 (Simulation time: 13 hr 32 min 35 sec) 
 Total Blocks : 262144 Invalid Blocks : 0
Heartbeat CPU 4 instructions: 190000002 cycles: 80762782 heartbeat IPC: 2.35252 cumulative IPC: 2.35257 (Simulation time: 13 hr 32 min 35 sec) 
 Total Blocks : 262144 Invalid Blocks : 0
Heartbeat CPU 6 instructions: 190000002 cycles: 80762824 heartbeat IPC: 2.35253 cumulative IPC: 2.35257 (Simulation time: 13 hr 32 min 35 sec) 
 Total Blocks : 262144 Invalid Blocks : 0
Heartbeat CPU 7 instructions: 190000002 cycles: 80762831 heartbeat IPC: 2.35251 cumulative IPC: 2.35257 (Simulation time: 13 hr 32 min 35 sec) 
 Total Blocks : 262144 Invalid Blocks : 0
Heartbeat CPU 1 instructions: 190000002 cycles: 80762854 heartbeat IPC: 2.3525 cumulative IPC: 2.35257 (Simulation time: 13 hr 32 min 35 sec) 
 Total Blocks : 262144 Invalid Blocks : 0
Heartbeat CPU 5 instructions: 190000002 cycles: 80762893 heartbeat IPC: 2.35249 cumulative IPC: 2.35257 (Simulation time: 13 hr 32 min 35 sec) 
 Total Blocks : 262144 Invalid Blocks : 0
Heartbeat CPU 3 instructions: 190000002 cycles: 80762950 heartbeat IPC: 2.35249 cumulative IPC: 2.35256 (Simulation time: 13 hr 32 min 35 sec) 
 Total Blocks : 262144 Invalid Blocks : 0
Heartbeat CPU 0 instructions: 200000001 cycles: 85013323 heartbeat IPC: 2.35258 cumulative IPC: 2.35257 (Simulation time: 14 hr 27 min 47 sec) 
 Total Blocks : 262144 Invalid Blocks : 0
Heartbeat CPU 4 instructions: 200000001 cycles: 85013413 heartbeat IPC: 2.35259 cumulative IPC: 2.35257 (Simulation time: 14 hr 27 min 47 sec) 
 Total Blocks : 262144 Invalid Blocks : 0
Heartbeat CPU 2 instructions: 200000001 cycles: 85013418 heartbeat IPC: 2.35259 cumulative IPC: 2.35257 (Simulation time: 14 hr 27 min 47 sec) 
 Total Blocks : 262144 Invalid Blocks : 0
Heartbeat CPU 7 instructions: 200000001 cycles: 85013444 heartbeat IPC: 2.3526 cumulative IPC: 2.35257 (Simulation time: 14 hr 27 min 48 sec) 
 Total Blocks : 262144 Invalid Blocks : 0
Heartbeat CPU 6 instructions: 200000001 cycles: 85013498 heartbeat IPC: 2.35257 cumulative IPC: 2.35257 (Simulation time: 14 hr 27 min 48 sec) 
 Total Blocks : 262144 Invalid Blocks : 0
Heartbeat CPU 1 instructions: 200000001 cycles: 85013530 heartbeat IPC: 2.35257 cumulative IPC: 2.35257 (Simulation time: 14 hr 27 min 48 sec) 
 Total Blocks : 262144 Invalid Blocks : 0
Heartbeat CPU 5 instructions: 200000001 cycles: 85013564 heartbeat IPC: 2.35257 cumulative IPC: 2.35257 (Simulation time: 14 hr 27 min 48 sec) 
 Total Blocks : 262144 Invalid Blocks : 0
Heartbeat CPU 3 instructions: 200000001 cycles: 85013647 heartbeat IPC: 2.35256 cumulative IPC: 2.35256 (Simulation time: 14 hr 27 min 48 sec) 
 Total Blocks : 262144 Invalid Blocks : 0

Warmup complete CPU 0 instructions: 200000781 cycles: 85013647 (Simulation time: 14 hr 27 min 48 sec) 
Warmup complete CPU 1 instructions: 200000265 cycles: 85013647 (Simulation time: 14 hr 27 min 48 sec) 
Warmup complete CPU 2 instructions: 200000526 cycles: 85013647 (Simulation time: 14 hr 27 min 48 sec) 
Warmup complete CPU 3 instructions: 200000001 cycles: 85013647 (Simulation time: 14 hr 27 min 48 sec) 
Warmup complete CPU 4 instructions: 200000542 cycles: 85013646 (Simulation time: 14 hr 27 min 48 sec) 
Warmup complete CPU 5 instructions: 200000150 cycles: 85013646 (Simulation time: 14 hr 27 min 48 sec) 
Warmup complete CPU 6 instructions: 200000362 cycles: 85013646 (Simulation time: 14 hr 27 min 48 sec) 
Warmup complete CPU 7 instructions: 200000434 cycles: 85013646 (Simulation time: 14 hr 27 min 48 sec) 

Heartbeat CPU 3 instructions: 210000002 cycles: 102829791 heartbeat IPC: 0.561289 cumulative IPC: 0.561289 (Simulation time: 15 hr 32 min 3 sec) 
 Total Blocks : 262144 Invalid Blocks : 0
Heartbeat CPU 2 instructions: 210000001 cycles: 102909935 heartbeat IPC: 0.558768 cumulative IPC: 0.558746 (Simulation time: 15 hr 32 min 21 sec) 
 Total Blocks : 262144 Invalid Blocks : 0
Heartbeat CPU 5 instructions: 210000002 cycles: 102914085 heartbeat IPC: 0.558643 cumulative IPC: 0.558637 (Simulation time: 15 hr 32 min 22 sec) 
 Total Blocks : 262144 Invalid Blocks : 0
Heartbeat CPU 0 instructions: 210000001 cycles: 102922470 heartbeat IPC: 0.558374 cumulative IPC: 0.55834 (Simulation time: 15 hr 32 min 24 sec) 
 Total Blocks : 262144 Invalid Blocks : 0
Heartbeat CPU 1 instructions: 210000002 cycles: 102965697 heartbeat IPC: 0.557036 cumulative IPC: 0.557025 (Simulation time: 15 hr 32 min 34 sec) 
 Total Blocks : 262144 Invalid Blocks : 0
Heartbeat CPU 6 instructions: 210000001 cycles: 103003390 heartbeat IPC: 0.555868 cumulative IPC: 0.555852 (Simulation time: 15 hr 32 min 43 sec) 
 Total Blocks : 262144 Invalid Blocks : 0
Heartbeat CPU 4 instructions: 210000001 cycles: 103019209 heartbeat IPC: 0.555377 cumulative IPC: 0.555354 (Simulation time: 15 hr 32 min 46 sec) 
 Total Blocks : 262144 Invalid Blocks : 0
Heartbeat CPU 7 instructions: 210000001 cycles: 103038759 heartbeat IPC: 0.554775 cumulative IPC: 0.554758 (Simulation time: 15 hr 32 min 51 sec) 
 Total Blocks : 262144 Invalid Blocks : 0
Heartbeat CPU 3 instructions: 220000000 cycles: 120459645 heartbeat IPC: 0.56722 cumulative IPC: 0.564239 (Simulation time: 16 hr 37 min 47 sec) 
 Total Blocks : 262144 Invalid Blocks : 0
Heartbeat CPU 0 instructions: 220000000 cycles: 120469284 heartbeat IPC: 0.569904 cumulative IPC: 0.564063 (Simulation time: 16 hr 37 min 49 sec) 
 Total Blocks : 262144 Invalid Blocks : 0
Heartbeat CPU 2 instructions: 220000000 cycles: 120490260 heartbeat IPC: 0.568818 cumulative IPC: 0.563737 (Simulation time: 16 hr 37 min 54 sec) 
 Total Blocks : 262144 Invalid Blocks : 0
Heartbeat CPU 5 instructions: 220000000 cycles: 120529788 heartbeat IPC: 0.567675 cumulative IPC: 0.56312 (Simulation time: 16 hr 38 min 3 sec) 
 Total Blocks : 262144 Invalid Blocks : 0
Heartbeat CPU 1 instructions: 220000000 cycles: 120546905 heartbeat IPC: 0.568789 cumulative IPC: 0.562846 (Simulation time: 16 hr 38 min 6 sec) 
 Total Blocks : 262144 Invalid Blocks : 0
Heartbeat CPU 6 instructions: 220000000 cycles: 120659661 heartbeat IPC: 0.566371 cumulative IPC: 0.561062 (Simulation time: 16 hr 38 min 26 sec) 
 Total Blocks : 262144 Invalid Blocks : 0
Heartbeat CPU 4 instructions: 220000000 cycles: 120666799 heartbeat IPC: 0.56665 cumulative IPC: 0.560945 (Simulation time: 16 hr 38 min 28 sec) 
 Total Blocks : 262144 Invalid Blocks : 0
Heartbeat CPU 7 instructions: 220000000 cycles: 120693656 heartbeat IPC: 0.566415 cumulative IPC: 0.560526 (Simulation time: 16 hr 38 min 34 sec) 
 Total Blocks : 262144 Invalid Blocks : 0
Heartbeat CPU 3 instructions: 230000001 cycles: 138008411 heartbeat IPC: 0.569841 cumulative IPC: 0.566094 (Simulation time: 17 hr 44 min 19 sec) 
 Total Blocks : 262144 Invalid Blocks : 0
Heartbeat CPU 0 instructions: 230000002 cycles: 138114947 heartbeat IPC: 0.566712 cumulative IPC: 0.564943 (Simulation time: 17 hr 44 min 45 sec) 
 Total Blocks : 262144 Invalid Blocks : 0
Heartbeat CPU 2 instructions: 230000001 cycles: 138137903 heartbeat IPC: 0.566648 cumulative IPC: 0.564704 (Simulation time: 17 hr 44 min 50 sec) 
 Total Blocks : 262144 Invalid Blocks : 0
Heartbeat CPU 5 instructions: 230000001 cycles: 138177045 heartbeat IPC: 0.56666 cumulative IPC: 0.564295 (Simulation time: 17 hr 45 min 0 sec) 
 Total Blocks : 262144 Invalid Blocks : 0
Heartbeat CPU 1 instructions: 230000002 cycles: 138251355 heartbeat IPC: 0.56483 cumulative IPC: 0.563505 (Simulation time: 17 hr 45 min 18 sec) 
 Total Blocks : 262144 Invalid Blocks : 0
Heartbeat CPU 4 instructions: 230000002 cycles: 138296130 heartbeat IPC: 0.567237 cumulative IPC: 0.563027 (Simulation time: 17 hr 45 min 29 sec) 
 Total Blocks : 262144 Invalid Blocks : 0
Heartbeat CPU 6 instructions: 230000001 cycles: 138314085 heartbeat IPC: 0.56643 cumulative IPC: 0.56284 (Simulation time: 17 hr 45 min 33 sec) 
 Total Blocks : 262144 Invalid Blocks : 0
Heartbeat CPU 7 instructions: 230000002 cycles: 138357967 heartbeat IPC: 0.566113 cumulative IPC: 0.562376 (Simulation time: 17 hr 45 min 43 sec) 
 Total Blocks : 262144 Invalid Blocks : 0
Heartbeat CPU 3 instructions: 240000002 cycles: 155698024 heartbeat IPC: 0.565304 cumulative IPC: 0.565896 (Simulation time: 18 hr 52 min 41 sec) 
 Total Blocks : 262144 Invalid Blocks : 0
Heartbeat CPU 0 instructions: 240000002 cycles: 155701284 heartbeat IPC: 0.568623 cumulative IPC: 0.565859 (Simulation time: 18 hr 52 min 42 sec) 
 Total Blocks : 262144 Invalid Blocks : 0
Heartbeat CPU 5 instructions: 240000002 cycles: 155771955 heartbeat IPC: 0.568346 cumulative IPC: 0.565303 (Simulation time: 18 hr 52 min 58 sec) 
 Total Blocks : 262144 Invalid Blocks : 0
Heartbeat CPU 2 instructions: 240000002 cycles: 155825540 heartbeat IPC: 0.565367 cumulative IPC: 0.564869 (Simulation time: 18 hr 53 min 11 sec) 
 Total Blocks : 262144 Invalid Blocks : 0
Heartbeat CPU 4 instructions: 240000002 cycles: 155863734 heartbeat IPC: 0.56923 cumulative IPC: 0.564565 (Simulation time: 18 hr 53 min 21 sec) 
 Total Blocks : 262144 Invalid Blocks : 0
Heartbeat CPU 1 instructions: 240000002 cycles: 155903263 heartbeat IPC: 0.566511 cumulative IPC: 0.564254 (Simulation time: 18 hr 53 min 31 sec) 
 Total Blocks : 262144 Invalid Blocks : 0
Heartbeat CPU 7 instructions: 240000002 cycles: 155972471 heartbeat IPC: 0.567714 cumulative IPC: 0.563701 (Simulation time: 18 hr 53 min 47 sec) 
 Total Blocks : 262144 Invalid Blocks : 0
Heartbeat CPU 6 instructions: 240000002 cycles: 156061238 heartbeat IPC: 0.563471 cumulative IPC: 0.562998 (Simulation time: 18 hr 54 min 9 sec) 
 Total Blocks : 262144 Invalid Blocks : 0
Heartbeat CPU 0 instructions: 250000003 cycles: 173341878 heartbeat IPC: 0.566874 cumulative IPC: 0.566062 (Simulation time: 20 hr 1 min 28 sec) 
 Total Blocks : 262144 Invalid Blocks : 0
Heartbeat CPU 3 instructions: 250000003 cycles: 173369487 heartbeat IPC: 0.565884 cumulative IPC: 0.565894 (Simulation time: 20 hr 1 min 34 sec) 
 Total Blocks : 262144 Invalid Blocks : 0
Heartbeat CPU 5 instructions: 250000003 cycles: 173392793 heartbeat IPC: 0.56751 cumulative IPC: 0.565743 (Simulation time: 20 hr 1 min 38 sec) 
 Total Blocks : 262144 Invalid Blocks : 0
Heartbeat CPU 4 instructions: 250000003 cycles: 173442589 heartbeat IPC: 0.568865 cumulative IPC: 0.56542 (Simulation time: 20 hr 1 min 47 sec) 
 Total Blocks : 262144 Invalid Blocks : 0
Heartbeat CPU 2 instructions: 250000003 cycles: 173477817 heartbeat IPC: 0.566499 cumulative IPC: 0.565195 (Simulation time: 20 hr 1 min 53 sec) 
 Total Blocks : 262144 Invalid Blocks : 0
Heartbeat CPU 1 instructions: 250000003 cycles: 173628736 heartbeat IPC: 0.56416 cumulative IPC: 0.564235 (Simulation time: 20 hr 2 min 21 sec) 
 Total Blocks : 262144 Invalid Blocks : 0
Heartbeat CPU 7 instructions: 250000003 cycles: 173651643 heartbeat IPC: 0.565637 cumulative IPC: 0.564087 (Simulation time: 20 hr 2 min 25 sec) 
 Total Blocks : 262144 Invalid Blocks : 0
Heartbeat CPU 6 instructions: 250000003 cycles: 173713136 heartbeat IPC: 0.566511 cumulative IPC: 0.563697 (Simulation time: 20 hr 2 min 37 sec) 
 Total Blocks : 262144 Invalid Blocks : 0
Heartbeat CPU 3 instructions: 260000001 cycles: 190915050 heartbeat IPC: 0.569945 cumulative IPC: 0.566565 (Simulation time: 21 hr 8 min 59 sec) 
 Total Blocks : 262144 Invalid Blocks : 0
Heartbeat CPU 5 instructions: 260000003 cycles: 190982303 heartbeat IPC: 0.568521 cumulative IPC: 0.566204 (Simulation time: 21 hr 9 min 18 sec) 
 Total Blocks : 262144 Invalid Blocks : 0
Heartbeat CPU 0 instructions: 260000003 cycles: 191069667 heartbeat IPC: 0.564086 cumulative IPC: 0.565731 (Simulation time: 21 hr 9 min 40 sec) 
 Total Blocks : 262144 Invalid Blocks : 0
Heartbeat CPU 4 instructions: 260000003 cycles: 191086096 heartbeat IPC: 0.566781 cumulative IPC: 0.565646 (Simulation time: 21 hr 9 min 44 sec) 
 Total Blocks : 262144 Invalid Blocks : 0
Heartbeat CPU 2 instructions: 260000003 cycles: 191224267 heartbeat IPC: 0.563493 cumulative IPC: 0.56491 (Simulation time: 21 hr 10 min 21 sec) 
 Total Blocks : 262144 Invalid Blocks : 0
Heartbeat CPU 6 instructions: 260000003 cycles: 191254687 heartbeat IPC: 0.570075 cumulative IPC: 0.56475 (Simulation time: 21 hr 10 min 28 sec) 
 Total Blocks : 262144 Invalid Blocks : 0
Heartbeat CPU 1 instructions: 260000001 cycles: 191298684 heartbeat IPC: 0.565933 cumulative IPC: 0.564517 (Simulation time: 21 hr 10 min 40 sec) 
 Total Blocks : 262144 Invalid Blocks : 0
Heartbeat CPU 7 instructions: 260000003 cycles: 191346235 heartbeat IPC: 0.565144 cumulative IPC: 0.564263 (Simulation time: 21 hr 10 min 52 sec) 
 Total Blocks : 262144 Invalid Blocks : 0
Heartbeat CPU 3 instructions: 270000000 cycles: 208518308 heartbeat IPC: 0.568077 cumulative IPC: 0.56678 (Simulation time: 22 hr 25 min 37 sec) 
 Total Blocks : 262144 Invalid Blocks : 0
Heartbeat CPU 0 instructions: 270000001 cycles: 208702111 heartbeat IPC: 0.567136 cumulative IPC: 0.565932 (Simulation time: 22 hr 26 min 26 sec) 
 Total Blocks : 262144 Invalid Blocks : 0
Heartbeat CPU 4 instructions: 270000000 cycles: 208710872 heartbeat IPC: 0.567383 cumulative IPC: 0.565894 (Simulation time: 22 hr 26 min 28 sec) 
 Total Blocks : 262144 Invalid Blocks : 0
Heartbeat CPU 5 instructions: 270000001 cycles: 208720688 heartbeat IPC: 0.563749 cumulative IPC: 0.565852 (Simulation time: 22 hr 26 min 31 sec) 
 Total Blocks : 262144 Invalid Blocks : 0
Heartbeat CPU 6 instructions: 270000000 cycles: 208838085 heartbeat IPC: 0.568718 cumulative IPC: 0.565314 (Simulation time: 22 hr 27 min 2 sec) 
 Total Blocks : 262144 Invalid Blocks : 0
Heartbeat CPU 7 instructions: 270000000 cycles: 208845774 heartbeat IPC: 0.571443 cumulative IPC: 0.565278 (Simulation time: 22 hr 27 min 4 sec) 
 Total Blocks : 262144 Invalid Blocks : 0
Heartbeat CPU 2 instructions: 270000000 cycles: 208885847 heartbeat IPC: 0.566201 cumulative IPC: 0.565094 (Simulation time: 22 hr 27 min 15 sec) 
 Total Blocks : 262144 Invalid Blocks : 0
Heartbeat CPU 1 instructions: 270000000 cycles: 208918351 heartbeat IPC: 0.567548 cumulative IPC: 0.564948 (Simulation time: 22 hr 27 min 24 sec) 
 Total Blocks : 262144 Invalid Blocks : 0
Heartbeat CPU 3 instructions: 280000002 cycles: 226143459 heartbeat IPC: 0.567371 cumulative IPC: 0.566854 (Simulation time: 23 hr 44 min 15 sec) 
 Total Blocks : 262144 Invalid Blocks : 0
Heartbeat CPU 4 instructions: 280000002 cycles: 226315255 heartbeat IPC: 0.56804 cumulative IPC: 0.566161 (Simulation time: 23 hr 45 min 1 sec) 
 Total Blocks : 262144 Invalid Blocks : 0
Heartbeat CPU 0 instructions: 280000000 cycles: 226356136 heartbeat IPC: 0.566443 cumulative IPC: 0.565996 (Simulation time: 23 hr 45 min 11 sec) 
 Total Blocks : 262144 Invalid Blocks : 0
Heartbeat CPU 5 instructions: 280000002 cycles: 226375733 heartbeat IPC: 0.56641 cumulative IPC: 0.565922 (Simulation time: 23 hr 45 min 17 sec) 
 Total Blocks : 262144 Invalid Blocks : 0
Heartbeat CPU 7 instructions: 280000002 cycles: 226442539 heartbeat IPC: 0.568286 cumulative IPC: 0.565652 (Simulation time: 23 hr 45 min 35 sec) 
 Total Blocks : 262144 Invalid Blocks : 0
Heartbeat CPU 2 instructions: 280000002 cycles: 226495896 heartbeat IPC: 0.567858 cumulative IPC: 0.565438 (Simulation time: 23 hr 45 min 49 sec) 
 Total Blocks : 262144 Invalid Blocks : 0
Heartbeat CPU 6 instructions: 280000002 cycles: 226558228 heartbeat IPC: 0.56433 cumulative IPC: 0.56519 (Simulation time: 23 hr 46 min 6 sec) 
 Total Blocks : 262144 Invalid Blocks : 0
Heartbeat CPU 1 instructions: 280000002 cycles: 226753422 heartbeat IPC: 0.560693 cumulative IPC: 0.564413 (Simulation time: 23 hr 46 min 58 sec) 
 Total Blocks : 262144 Invalid Blocks : 0
Heartbeat CPU 3 instructions: 290000003 cycles: 243759617 heartbeat IPC: 0.567661 cumulative IPC: 0.566944 (Simulation time: 25 hr 4 min 46 sec) 
 Total Blocks : 262144 Invalid Blocks : 0
Heartbeat CPU 4 instructions: 290000003 cycles: 243944242 heartbeat IPC: 0.567248 cumulative IPC: 0.566282 (Simulation time: 25 hr 5 min 37 sec) 
 Total Blocks : 262144 Invalid Blocks : 0
Heartbeat CPU 5 instructions: 290000003 cycles: 243999853 heartbeat IPC: 0.567404 cumulative IPC: 0.566086 (Simulation time: 25 hr 5 min 52 sec) 
 Total Blocks : 262144 Invalid Blocks : 0
Heartbeat CPU 0 instructions: 290000003 cycles: 244004695 heartbeat IPC: 0.566619 cumulative IPC: 0.566065 (Simulation time: 25 hr 5 min 53 sec) 
 Total Blocks : 262144 Invalid Blocks : 0
Heartbeat CPU 7 instructions: 290000003 cycles: 244087494 heartbeat IPC: 0.566734 cumulative IPC: 0.565772 (Simulation time: 25 hr 6 min 16 sec) 
 Total Blocks : 262144 Invalid Blocks : 0
Heartbeat CPU 2 instructions: 290000003 cycles: 244201375 heartbeat IPC: 0.564797 cumulative IPC: 0.565367 (Simulation time: 25 hr 6 min 49 sec) 
 Total Blocks : 262144 Invalid Blocks : 0
Heartbeat CPU 6 instructions: 290000003 cycles: 244292568 heartbeat IPC: 0.563878 cumulative IPC: 0.565044 (Simulation time: 25 hr 7 min 14 sec) 
 Total Blocks : 262144 Invalid Blocks : 0
Heartbeat CPU 1 instructions: 290000003 cycles: 244458888 heartbeat IPC: 0.564797 cumulative IPC: 0.564455 (Simulation time: 25 hr 8 min 1 sec) 
 Total Blocks : 262144 Invalid Blocks : 0
Heartbeat CPU 3 instructions: 300000000 cycles: 261423285 heartbeat IPC: 0.566134 cumulative IPC: 0.566862 (Simulation time: 26 hr 25 min 53 sec) 
 Total Blocks : 262144 Invalid Blocks : 0
Heartbeat CPU 4 instructions: 300000000 cycles: 261599911 heartbeat IPC: 0.56639 cumulative IPC: 0.566292 (Simulation time: 26 hr 26 min 29 sec) 
 Total Blocks : 262144 Invalid Blocks : 0
Heartbeat CPU 5 instructions: 300000000 cycles: 261614033 heartbeat IPC: 0.567724 cumulative IPC: 0.566249 (Simulation time: 26 hr 26 min 32 sec) 
 Total Blocks : 262144 Invalid Blocks : 0
Heartbeat CPU 7 instructions: 300000001 cycles: 261620821 heartbeat IPC: 0.570342 cumulative IPC: 0.566226 (Simulation time: 26 hr 26 min 33 sec) 
 Total Blocks : 262144 Invalid Blocks : 0
Heartbeat CPU 0 instructions: 300000000 cycles: 261684583 heartbeat IPC: 0.565614 cumulative IPC: 0.56602 (Simulation time: 26 hr 26 min 47 sec) 
 Total Blocks : 262144 Invalid Blocks : 0
Heartbeat CPU 2 instructions: 300000001 cycles: 261884159 heartbeat IPC: 0.565522 cumulative IPC: 0.565382 (Simulation time: 26 hr 27 min 28 sec) 
 Total Blocks : 262144 Invalid Blocks : 0
Heartbeat CPU 6 instructions: 300000003 cycles: 261915471 heartbeat IPC: 0.567443 cumulative IPC: 0.565283 (Simulation time: 26 hr 27 min 34 sec) 
 Total Blocks : 262144 Invalid Blocks : 0
Heartbeat CPU 1 instructions: 300000000 cycles: 262156700 heartbeat IPC: 0.565041 cumulative IPC: 0.564514 (Simulation time: 26 hr 28 min 24 sec) 
 Total Blocks : 262144 Invalid Blocks : 0
Heartbeat CPU 3 instructions: 310000003 cycles: 279142665 heartbeat IPC: 0.564354 cumulative IPC: 0.566633 (Simulation time: 27 hr 28 min 41 sec) 
 Total Blocks : 262144 Invalid Blocks : 0
Heartbeat CPU 5 instructions: 310000000 cycles: 279228384 heartbeat IPC: 0.567719 cumulative IPC: 0.566383 (Simulation time: 27 hr 28 min 59 sec) 
 Total Blocks : 262144 Invalid Blocks : 0
Heartbeat CPU 7 instructions: 310000000 cycles: 279243348 heartbeat IPC: 0.567455 cumulative IPC: 0.566338 (Simulation time: 27 hr 29 min 2 sec) 
 Total Blocks : 262144 Invalid Blocks : 0
Heartbeat CPU 4 instructions: 310000000 cycles: 279281325 heartbeat IPC: 0.565566 cumulative IPC: 0.566226 (Simulation time: 27 hr 29 min 10 sec) 
 Total Blocks : 262144 Invalid Blocks : 0
Heartbeat CPU 0 instructions: 310000003 cycles: 279451244 heartbeat IPC: 0.562852 cumulative IPC: 0.56573 (Simulation time: 27 hr 29 min 47 sec) 
 Total Blocks : 262144 Invalid Blocks : 0
Heartbeat CPU 2 instructions: 310000001 cycles: 279469505 heartbeat IPC: 0.568655 cumulative IPC: 0.565678 (Simulation time: 27 hr 29 min 51 sec) 
 Total Blocks : 262144 Invalid Blocks : 0
Heartbeat CPU 6 instructions: 310000000 cycles: 279627226 heartbeat IPC: 0.564597 cumulative IPC: 0.565221 (Simulation time: 27 hr 30 min 24 sec) 
 Total Blocks : 262144 Invalid Blocks : 0
Heartbeat CPU 1 instructions: 310000001 cycles: 279769580 heartbeat IPC: 0.567766 cumulative IPC: 0.564808 (Simulation time: 27 hr 30 min 55 sec) 
 Total Blocks : 262144 Invalid Blocks : 0
Heartbeat CPU 5 instructions: 320000003 cycles: 296798151 heartbeat IPC: 0.56916 cumulative IPC: 0.566613 (Simulation time: 28 hr 32 min 52 sec) 
 Total Blocks : 262144 Invalid Blocks : 0
Heartbeat CPU 3 instructions: 320000000 cycles: 296806517 heartbeat IPC: 0.566128 cumulative IPC: 0.566591 (Simulation time: 28 hr 32 min 54 sec) 
 Total Blocks : 262144 Invalid Blocks : 0
Heartbeat CPU 4 instructions: 320000003 cycles: 296872477 heartbeat IPC: 0.568468 cumulative IPC: 0.566412 (Simulation time: 28 hr 33 min 8 sec) 
 Total Blocks : 262144 Invalid Blocks : 0
Heartbeat CPU 7 instructions: 320000000 cycles: 296894644 heartbeat IPC: 0.566531 cumulative IPC: 0.566354 (Simulation time: 28 hr 33 min 13 sec) 
 Total Blocks : 262144 Invalid Blocks : 0
Heartbeat CPU 2 instructions: 320000003 cycles: 297118975 heartbeat IPC: 0.566589 cumulative IPC: 0.565754 (Simulation time: 28 hr 34 min 2 sec) 
 Total Blocks : 262144 Invalid Blocks : 0
Heartbeat CPU 0 instructions: 320000000 cycles: 297153106 heartbeat IPC: 0.564912 cumulative IPC: 0.565662 (Simulation time: 28 hr 34 min 10 sec) 
 Total Blocks : 262144 Invalid Blocks : 0
Heartbeat CPU 6 instructions: 320000000 cycles: 297296105 heartbeat IPC: 0.565967 cumulative IPC: 0.565283 (Simulation time: 28 hr 34 min 41 sec) 
 Total Blocks : 262144 Invalid Blocks : 0
Heartbeat CPU 1 instructions: 320000000 cycles: 297496129 heartbeat IPC: 0.564126 cumulative IPC: 0.564751 (Simulation time: 28 hr 35 min 27 sec) 
 Total Blocks : 262144 Invalid Blocks : 0
Heartbeat CPU 5 instructions: 330000000 cycles: 314391938 heartbeat IPC: 0.568382 cumulative IPC: 0.566749 (Simulation time: 29 hr 38 min 38 sec) 
 Total Blocks : 262144 Invalid Blocks : 0
Heartbeat CPU 7 instructions: 330000000 cycles: 314436706 heartbeat IPC: 0.570058 cumulative IPC: 0.566637 (Simulation time: 29 hr 38 min 48 sec) 
 Total Blocks : 262144 Invalid Blocks : 0
Heartbeat CPU 3 instructions: 330000000 cycles: 314554832 heartbeat IPC: 0.563434 cumulative IPC: 0.566347 (Simulation time: 29 hr 39 min 15 sec) 
 Total Blocks : 262144 Invalid Blocks : 0
Heartbeat CPU 4 instructions: 330000000 cycles: 314603934 heartbeat IPC: 0.563969 cumulative IPC: 0.566224 (Simulation time: 29 hr 39 min 26 sec) 
 Total Blocks : 262144 Invalid Blocks : 0
Heartbeat CPU 2 instructions: 330000000 cycles: 314732253 heartbeat IPC: 0.567753 cumulative IPC: 0.565907 (Simulation time: 29 hr 39 min 54 sec) 
 Total Blocks : 262144 Invalid Blocks : 0
Heartbeat CPU 0 instructions: 330000000 cycles: 314878981 heartbeat IPC: 0.564147 cumulative IPC: 0.565545 (Simulation time: 29 hr 40 min 27 sec) 
 Total Blocks : 262144 Invalid Blocks : 0
Heartbeat CPU 6 instructions: 330000000 cycles: 314998778 heartbeat IPC: 0.564886 cumulative IPC: 0.565252 (Simulation time: 29 hr 40 min 54 sec) 
 Total Blocks : 262144 Invalid Blocks : 0
Heartbeat CPU 1 instructions: 330000000 cycles: 315168385 heartbeat IPC: 0.565859 cumulative IPC: 0.564836 (Simulation time: 29 hr 41 min 32 sec) 
 Total Blocks : 262144 Invalid Blocks : 0
Heartbeat CPU 7 instructions: 340000002 cycles: 332082590 heartbeat IPC: 0.566705 cumulative IPC: 0.566642 (Simulation time: 30 hr 53 min 25 sec) 
 Total Blocks : 262144 Invalid Blocks : 0
Heartbeat CPU 3 instructions: 340000002 cycles: 332101042 heartbeat IPC: 0.569924 cumulative IPC: 0.566601 (Simulation time: 30 hr 53 min 31 sec) 
 Total Blocks : 262144 Invalid Blocks : 0
Heartbeat CPU 5 instructions: 340000002 cycles: 332111933 heartbeat IPC: 0.564334 cumulative IPC: 0.566576 (Simulation time: 30 hr 53 min 35 sec) 
 Total Blocks : 262144 Invalid Blocks : 0
Heartbeat CPU 4 instructions: 340000002 cycles: 332215065 heartbeat IPC: 0.567823 cumulative IPC: 0.566338 (Simulation time: 30 hr 54 min 7 sec) 
 Total Blocks : 262144 Invalid Blocks : 0
Heartbeat CPU 2 instructions: 340000002 cycles: 332446792 heartbeat IPC: 0.564508 cumulative IPC: 0.565807 (Simulation time: 30 hr 55 min 17 sec) 
 Total Blocks : 262144 Invalid Blocks : 0
Heartbeat CPU 0 instructions: 340000002 cycles: 332496895 heartbeat IPC: 0.567604 cumulative IPC: 0.565692 (Simulation time: 30 hr 55 min 32 sec) 
 Total Blocks : 262144 Invalid Blocks : 0
Heartbeat CPU 6 instructions: 340000002 cycles: 332672706 heartbeat IPC: 0.565805 cumulative IPC: 0.565292 (Simulation time: 30 hr 56 min 28 sec) 
 Total Blocks : 262144 Invalid Blocks : 0
Heartbeat CPU 1 instructions: 340000002 cycles: 332846395 heartbeat IPC: 0.565675 cumulative IPC: 0.564896 (Simulation time: 30 hr 57 min 21 sec) 
 Total Blocks : 262144 Invalid Blocks : 0
Heartbeat CPU 5 instructions: 350000001 cycles: 349689238 heartbeat IPC: 0.568915 cumulative IPC: 0.566731 (Simulation time: 32 hr 25 min 33 sec) 
 Total Blocks : 262144 Invalid Blocks : 0
Heartbeat CPU 7 instructions: 350000001 cycles: 349691912 heartbeat IPC: 0.567881 cumulative IPC: 0.566724 (Simulation time: 32 hr 25 min 34 sec) 
 Total Blocks : 262144 Invalid Blocks : 0
Heartbeat CPU 3 instructions: 350000003 cycles: 349781011 heartbeat IPC: 0.565612 cumulative IPC: 0.566535 (Simulation time: 32 hr 26 min 2 sec) 
 Total Blocks : 262144 Invalid Blocks : 0
Heartbeat CPU 4 instructions: 350000003 cycles: 349802293 heartbeat IPC: 0.568595 cumulative IPC: 0.566487 (Simulation time: 32 hr 26 min 9 sec) 
 Total Blocks : 262144 Invalid Blocks : 0
Heartbeat CPU 2 instructions: 350000003 cycles: 350142662 heartbeat IPC: 0.565104 cumulative IPC: 0.56576 (Simulation time: 32 hr 27 min 56 sec) 
 Total Blocks : 262144 Invalid Blocks : 0
Heartbeat CPU 0 instructions: 350000001 cycles: 350187333 heartbeat IPC: 0.565277 cumulative IPC: 0.565664 (Simulation time: 32 hr 28 min 11 sec) 
 Total Blocks : 262144 Invalid Blocks : 0
Heartbeat CPU 6 instructions: 350000001 cycles: 350336101 heartbeat IPC: 0.566142 cumulative IPC: 0.565348 (Simulation time: 32 hr 28 min 58 sec) 
 Total Blocks : 262144 Invalid Blocks : 0
Heartbeat CPU 1 instructions: 350000003 cycles: 350517891 heartbeat IPC: 0.565883 cumulative IPC: 0.564962 (Simulation time: 32 hr 29 min 56 sec) 
 Total Blocks : 262144 Invalid Blocks : 0
Heartbeat CPU 5 instructions: 360000000 cycles: 367271335 heartbeat IPC: 0.56876 cumulative IPC: 0.566857 (Simulation time: 33 hr 59 min 29 sec) 
 Total Blocks : 262144 Invalid Blocks : 0
Heartbeat CPU 7 instructions: 360000000 cycles: 367383610 heartbeat IPC: 0.565237 cumulative IPC: 0.566631 (Simulation time: 34 hr 0 min 6 sec) 
 Total Blocks : 262144 Invalid Blocks : 0
Heartbeat CPU 4 instructions: 360000000 cycles: 367410675 heartbeat IPC: 0.567911 cumulative IPC: 0.566576 (Simulation time: 34 hr 0 min 15 sec) 
 Total Blocks : 262144 Invalid Blocks : 0
Heartbeat CPU 3 instructions: 360000001 cycles: 367472082 heartbeat IPC: 0.565257 cumulative IPC: 0.566455 (Simulation time: 34 hr 0 min 35 sec) 
 Total Blocks : 262144 Invalid Blocks : 0
Heartbeat CPU 2 instructions: 360000001 cycles: 367744148 heartbeat IPC: 0.568134 cumulative IPC: 0.565908 (Simulation time: 34 hr 2 min 1 sec) 
 Total Blocks : 262144 Invalid Blocks : 0
Heartbeat CPU 0 instructions: 360000001 cycles: 367789687 heartbeat IPC: 0.568106 cumulative IPC: 0.565816 (Simulation time: 34 hr 2 min 17 sec) 
 Total Blocks : 262144 Invalid Blocks : 0
Heartbeat CPU 6 instructions: 360000001 cycles: 367969030 heartbeat IPC: 0.567121 cumulative IPC: 0.565459 (Simulation time: 34 hr 3 min 14 sec) 
 Total Blocks : 262144 Invalid Blocks : 0
Heartbeat CPU 1 instructions: 360000000 cycles: 368257567 heartbeat IPC: 0.563708 cumulative IPC: 0.564883 (Simulation time: 34 hr 4 min 47 sec) 
 Total Blocks : 262144 Invalid Blocks : 0
Heartbeat CPU 5 instructions: 370000002 cycles: 384960104 heartbeat IPC: 0.565331 cumulative IPC: 0.566767 (Simulation time: 35 hr 46 min 20 sec) 
 Total Blocks : 262144 Invalid Blocks : 0
Heartbeat CPU 7 instructions: 370000002 cycles: 385005318 heartbeat IPC: 0.567482 cumulative IPC: 0.566681 (Simulation time: 35 hr 46 min 37 sec) 
 Total Blocks : 262144 Invalid Blocks : 0
Heartbeat CPU 4 instructions: 370000000 cycles: 385082984 heartbeat IPC: 0.565857 cumulative IPC: 0.566534 (Simulation time: 35 hr 47 min 8 sec) 
 Total Blocks : 262144 Invalid Blocks : 0
Heartbeat CPU 3 instructions: 370000002 cycles: 385207449 heartbeat IPC: 0.563845 cumulative IPC: 0.566301 (Simulation time: 35 hr 47 min 53 sec) 
 Total Blocks : 262144 Invalid Blocks : 0
Heartbeat CPU 2 instructions: 370000002 cycles: 385388814 heartbeat IPC: 0.566744 cumulative IPC: 0.565957 (Simulation time: 35 hr 49 min 4 sec) 
 Total Blocks : 262144 Invalid Blocks : 0
Heartbeat CPU 0 instructions: 370000000 cycles: 385397491 heartbeat IPC: 0.56793 cumulative IPC: 0.56594 (Simulation time: 35 hr 49 min 9 sec) 
 Total Blocks : 262144 Invalid Blocks : 0
Heartbeat CPU 6 instructions: 370000002 cycles: 385797117 heartbeat IPC: 0.560913 cumulative IPC: 0.565189 (Simulation time: 35 hr 51 min 54 sec) 
 Total Blocks : 262144 Invalid Blocks : 0
Heartbeat CPU 1 instructions: 370000002 cycles: 385889758 heartbeat IPC: 0.567145 cumulative IPC: 0.565016 (Simulation time: 35 hr 52 min 32 sec) 
 Total Blocks : 262144 Invalid Blocks : 0
Heartbeat CPU 5 instructions: 380000000 cycles: 402558885 heartbeat IPC: 0.568221 cumulative IPC: 0.566848 (Simulation time: 37 hr 36 min 40 sec) 
 Total Blocks : 262144 Invalid Blocks : 0
Heartbeat CPU 4 instructions: 380000002 cycles: 402644206 heartbeat IPC: 0.569437 cumulative IPC: 0.566694 (Simulation time: 37 hr 37 min 14 sec) 
 Total Blocks : 262144 Invalid Blocks : 0
Heartbeat CPU 7 instructions: 380000000 cycles: 402645224 heartbeat IPC: 0.566896 cumulative IPC: 0.566693 (Simulation time: 37 hr 37 min 14 sec) 
 Total Blocks : 262144 Invalid Blocks : 0
Heartbeat CPU 3 instructions: 380000000 cycles: 402848359 heartbeat IPC: 0.566864 cumulative IPC: 0.566332 (Simulation time: 37 hr 38 min 32 sec) 
 Total Blocks : 262144 Invalid Blocks : 0
Heartbeat CPU 2 instructions: 380000000 cycles: 403062524 heartbeat IPC: 0.565812 cumulative IPC: 0.565949 (Simulation time: 37 hr 39 min 53 sec) 
 Total Blocks : 262144 Invalid Blocks : 0
Heartbeat CPU 0 instructions: 380000000 cycles: 403116372 heartbeat IPC: 0.56437 cumulative IPC: 0.565852 (Simulation time: 37 hr 40 min 13 sec) 
 Total Blocks : 262144 Invalid Blocks : 0
Heartbeat CPU 6 instructions: 380000000 cycles: 403481954 heartbeat IPC: 0.565456 cumulative IPC: 0.565204 (Simulation time: 37 hr 42 min 30 sec) 
 Total Blocks : 262144 Invalid Blocks : 0
Heartbeat CPU 1 instructions: 380000000 cycles: 403589429 heartbeat IPC: 0.564982 cumulative IPC: 0.565014 (Simulation time: 37 hr 43 min 13 sec) 
 Total Blocks : 262144 Invalid Blocks : 0
Heartbeat CPU 5 instructions: 390000002 cycles: 420231747 heartbeat IPC: 0.565839 cumulative IPC: 0.566795 (Simulation time: 39 hr 25 min 26 sec) 
 Total Blocks : 262144 Invalid Blocks : 0
Heartbeat CPU 7 instructions: 390000002 cycles: 420251928 heartbeat IPC: 0.567966 cumulative IPC: 0.56676 (Simulation time: 39 hr 25 min 33 sec) 
 Total Blocks : 262144 Invalid Blocks : 0
Heartbeat CPU 4 instructions: 390000002 cycles: 420338909 heartbeat IPC: 0.565141 cumulative IPC: 0.566612 (Simulation time: 39 hr 26 min 3 sec) 
 Total Blocks : 262144 Invalid Blocks : 0
Heartbeat CPU 3 instructions: 390000002 cycles: 420603321 heartbeat IPC: 0.563223 cumulative IPC: 0.566168 (Simulation time: 39 hr 27 min 37 sec) 
 Total Blocks : 262144 Invalid Blocks : 0
Heartbeat CPU 2 instructions: 390000002 cycles: 420736765 heartbeat IPC: 0.565795 cumulative IPC: 0.565941 (Simulation time: 39 hr 28 min 22 sec) 
 Total Blocks : 262144 Invalid Blocks : 0
Heartbeat CPU 0 instructions: 390000002 cycles: 420897312 heartbeat IPC: 0.5624 cumulative IPC: 0.56567 (Simulation time: 39 hr 29 min 19 sec) 
 Total Blocks : 262144 Invalid Blocks : 0
Heartbeat CPU 6 instructions: 390000002 cycles: 420998657 heartbeat IPC: 0.570884 cumulative IPC: 0.5655 (Simulation time: 39 hr 29 min 55 sec) 
 Total Blocks : 262144 Invalid Blocks : 0
Heartbeat CPU 1 instructions: 390000002 cycles: 421209187 heartbeat IPC: 0.567545 cumulative IPC: 0.565147 (Simulation time: 39 hr 31 min 9 sec) 
 Total Blocks : 262144 Invalid Blocks : 0
Heartbeat CPU 5 instructions: 400000003 cycles: 437858396 heartbeat IPC: 0.567323 cumulative IPC: 0.566821 (Simulation time: 41 hr 9 min 44 sec) 
 Total Blocks : 262144 Invalid Blocks : 0
Finished CPU 5 instructions: 200000001 cycles: 352844843 cumulative IPC: 0.566821 (Simulation time: 41 hr 9 min 44 sec) 
Heartbeat CPU 7 instructions: 400000003 cycles: 437885913 heartbeat IPC: 0.567087 cumulative IPC: 0.566776 (Simulation time: 41 hr 9 min 54 sec) 
 Total Blocks : 262144 Invalid Blocks : 0
Finished CPU 7 instructions: 200000000 cycles: 352873079 cumulative IPC: 0.566776 (Simulation time: 41 hr 9 min 55 sec) 
Heartbeat CPU 4 instructions: 400000003 cycles: 438113773 heartbeat IPC: 0.562592 cumulative IPC: 0.56641 (Simulation time: 41 hr 11 min 17 sec) 
 Total Blocks : 262144 Invalid Blocks : 0
Finished CPU 4 instructions: 200000000 cycles: 353100603 cumulative IPC: 0.566411 (Simulation time: 41 hr 11 min 17 sec) 
Heartbeat CPU 3 instructions: 400000003 cycles: 438221307 heartbeat IPC: 0.567602 cumulative IPC: 0.566239 (Simulation time: 41 hr 11 min 56 sec) 
 Total Blocks : 262144 Invalid Blocks : 0
Finished CPU 3 instructions: 200000002 cycles: 353207660 cumulative IPC: 0.566239 (Simulation time: 41 hr 11 min 56 sec) 
Heartbeat CPU 2 instructions: 400000000 cycles: 438332638 heartbeat IPC: 0.568315 cumulative IPC: 0.566059 (Simulation time: 41 hr 12 min 35 sec) 
 Total Blocks : 262144 Invalid Blocks : 0
Finished CPU 2 instructions: 200000003 cycles: 353320262 cumulative IPC: 0.566059 (Simulation time: 41 hr 12 min 36 sec) 
Heartbeat CPU 0 instructions: 400000000 cycles: 438550220 heartbeat IPC: 0.566479 cumulative IPC: 0.56571 (Simulation time: 41 hr 13 min 55 sec) 
 Total Blocks : 262144 Invalid Blocks : 0
Finished CPU 0 instructions: 200000001 cycles: 353537330 cumulative IPC: 0.565711 (Simulation time: 41 hr 13 min 55 sec) 
Heartbeat CPU 6 instructions: 400000003 cycles: 438694327 heartbeat IPC: 0.56511 cumulative IPC: 0.565481 (Simulation time: 41 hr 14 min 46 sec) 
 Total Blocks : 262144 Invalid Blocks : 0
Finished CPU 6 instructions: 200000000 cycles: 353681106 cumulative IPC: 0.565481 (Simulation time: 41 hr 14 min 46 sec) 
Heartbeat CPU 1 instructions: 400000000 cycles: 438789272 heartbeat IPC: 0.568825 cumulative IPC: 0.565329 (Simulation time: 41 hr 15 min 20 sec) 
 Total Blocks : 262144 Invalid Blocks : 0
Finished CPU 1 instructions: 200000002 cycles: 353775793 cumulative IPC: 0.56533 (Simulation time: 41 hr 15 min 20 sec) 

CPU 0 Branch Prediction Accuracy: 99.975% MPKI: 0.004382 Average ROB Occupancy at Mispredict: 350.956

CPU 1 Branch Prediction Accuracy: 99.975% MPKI: 0.00438499 Average ROB Occupancy at Mispredict: 350.974

CPU 2 Branch Prediction Accuracy: 99.975% MPKI: 0.00438441 Average ROB Occupancy at Mispredict: 350.975

CPU 3 Branch Prediction Accuracy: 99.975% MPKI: 0.00438298 Average ROB Occupancy at Mispredict: 350.962

CPU 4 Branch Prediction Accuracy: 99.975% MPKI: 0.00438166 Average ROB Occupancy at Mispredict: 350.934

CPU 5 Branch Prediction Accuracy: 99.975% MPKI: 0.00438365 Average ROB Occupancy at Mispredict: 350.99

CPU 6 Branch Prediction Accuracy: 99.975% MPKI: 0.00438377 Average ROB Occupancy at Mispredict: 350.965

CPU 7 Branch Prediction Accuracy: 99.975% MPKI: 0.00438381 Average ROB Occupancy at Mispredict: 350.977

ChampSim completed all CPUs

Total Simulation Statistics (not including warmup)

CPU 0 cumulative IPC: 0.565715 instructions: 200136276 cycles: 353775793
ITLB TOTAL     ACCESS: 32439826  HIT: 32439826  MISS:     0  HIT %:   100  MISS %:     0  AVERAGE MISS PENALTY: 0
ITLB LOAD      ACCESS: 32439826  HIT: 32439826  MISS:     0  HIT %:   100  MISS %:     0  AVERAGE MISS PENALTY: 0
ITLB RFO       ACCESS:     0  HIT:     0  MISS:     0  HIT %:     0  MISS %:     0  AVERAGE MISS PENALTY: 0
ITLB PREFETCH  ACCESS:     0  HIT:     0  MISS:     0  HIT %:     0  MISS %:     0  AVERAGE MISS PENALTY: 0
ITLB WRITEBACK ACCESS:     0  HIT:     0  MISS:     0  HIT %:     0  MISS %:     0  AVERAGE MISS PENALTY: 0

DTLB TOTAL     ACCESS: 33574379  HIT: 33527421  MISS: 46958  HIT %: 99.8601  MISS %: 0.139863  AVERAGE MISS PENALTY: 67.5967
DTLB LOAD      ACCESS: 28321607  HIT: 28275088  MISS: 46519  HIT %: 99.8357  MISS %: 0.164253  AVERAGE MISS PENALTY: 68.1497
DTLB RFO       ACCESS: 5252772  HIT: 5252333  MISS:   439  HIT %: 99.9916  MISS %: 0.00835749  AVERAGE MISS PENALTY: 9
DTLB PREFETCH  ACCESS:     0  HIT:     0  MISS:     0  HIT %:     0  MISS %:     0  AVERAGE MISS PENALTY: 0
DTLB WRITEBACK ACCESS:     0  HIT:     0  MISS:     0  HIT %:     0  MISS %:     0  AVERAGE MISS PENALTY: 0

STLB TOTAL     ACCESS: 46958  HIT: 19488  MISS: 27470  HIT %: 41.5009  MISS %: 58.4991  AVERAGE MISS PENALTY: 100
STLB LOAD      ACCESS: 46519  HIT: 19049  MISS: 27470  HIT %: 40.9489  MISS %: 59.0511  AVERAGE MISS PENALTY: 100
STLB RFO       ACCESS:   439  HIT:   439  MISS:     0  HIT %:   100  MISS %:     0  AVERAGE MISS PENALTY: 0
STLB PREFETCH  ACCESS:     0  HIT:     0  MISS:     0  HIT %:     0  MISS %:     0  AVERAGE MISS PENALTY: 0
STLB WRITEBACK ACCESS:     0  HIT:     0  MISS:     0  HIT %:     0  MISS %:     0  AVERAGE MISS PENALTY: 0

L1D TOTAL     ACCESS: 50038689  HIT: 47383631  MISS: 2655058  HIT %: 94.694  MISS %: 5.30601  AVERAGE MISS PENALTY: 6.14557e+07
L1D LOAD      ACCESS: 26650656  HIT: 25970731  MISS: 679925  HIT %: 97.4487  MISS %: 2.55125  AVERAGE MISS PENALTY: 2.39979e+08
L1D RFO       ACCESS: 14044689  HIT: 14042050  MISS:  2639  HIT %: 99.9812  MISS %: 0.01879  AVERAGE MISS PENALTY: 122.243
L1D PREFETCH  ACCESS: 9343344  HIT: 7370850  MISS: 1972494  HIT %: 78.8888  MISS %: 21.1112  AVERAGE MISS PENALTY: 268.596
L1D WRITEBACK ACCESS:     0  HIT:     0  MISS:     0  HIT %:     0  MISS %:     0  AVERAGE MISS PENALTY: 0

L1I TOTAL     ACCESS: 44272013  HIT: 44272013  MISS:     0  HIT %:   100  MISS %:     0  AVERAGE MISS PENALTY: 0
L1I LOAD      ACCESS: 44272013  HIT: 44272013  MISS:     0  HIT %:   100  MISS %:     0  AVERAGE MISS PENALTY: 0
L1I RFO       ACCESS:     0  HIT:     0  MISS:     0  HIT %:     0  MISS %:     0  AVERAGE MISS PENALTY: 0
L1I PREFETCH  ACCESS:     0  HIT:     0  MISS:     0  HIT %:     0  MISS %:     0  AVERAGE MISS PENALTY: 0
L1I WRITEBACK ACCESS:     0  HIT:     0  MISS:     0  HIT %:     0  MISS %:     0  AVERAGE MISS PENALTY: 0

L2C TOTAL     ACCESS: 6166387  HIT: 3513078  MISS: 2653309  HIT %: 56.9714  MISS %: 43.0286  AVERAGE MISS PENALTY: 6.00998e+07
L2C LOAD      ACCESS: 666789  HIT:  5465  MISS: 661324  HIT %: 0.8196  MISS %: 99.1804  AVERAGE MISS PENALTY: 2.41123e+08
L2C RFO       ACCESS:  2639  HIT:   306  MISS:  2333  HIT %: 11.5953  MISS %: 88.4047  AVERAGE MISS PENALTY: 870421
L2C PREFETCH  ACCESS: 3738322  HIT: 1749063  MISS: 1989259  HIT %: 46.7874  MISS %: 53.2126  AVERAGE MISS PENALTY: 384.911
L2C WRITEBACK ACCESS: 1758637  HIT: 1758244  MISS:   393  HIT %: 99.9777  MISS %: 0.0223469  AVERAGE MISS PENALTY: 0


LLC0 TOTAL     ACCESS: 550010  HIT: 259532  MISS: 290478  HIT %: 47.1868  MISS %: 52.8132  AVERAGE MISS PENALTY: 510.502
LLC0 LOAD      ACCESS: 42056  HIT: 12292  MISS: 29764  HIT %: 29.2277  MISS %: 70.7723  AVERAGE MISS PENALTY: 600.364
LLC0 RFO       ACCESS:     0  HIT:     0  MISS:     0  HIT %:     0  MISS %:     0  AVERAGE MISS PENALTY: 0
LLC0 PREFETCH  ACCESS: 288750  HIT: 82243  MISS: 206507  HIT %: 28.4824  MISS %: 71.5176  AVERAGE MISS PENALTY: 631.555
LLC0 WRITEBACK ACCESS: 219204  HIT: 164997  MISS: 54207  HIT %: 75.271  MISS %: 24.729  AVERAGE MISS PENALTY: 0

LLC1 TOTAL     ACCESS: 549713  HIT: 258795  MISS: 290918  HIT %: 47.0782  MISS %: 52.9218  AVERAGE MISS PENALTY: 510.372
LLC1 LOAD      ACCESS:  4788  HIT:   884  MISS:  3904  HIT %: 18.4628  MISS %: 81.5372  AVERAGE MISS PENALTY: 677.684
LLC1 RFO       ACCESS:     0  HIT:     0  MISS:     0  HIT %:     0  MISS %:     0  AVERAGE MISS PENALTY: 0
LLC1 PREFETCH  ACCESS: 325731  HIT: 93284  MISS: 232447  HIT %: 28.6384  MISS %: 71.3616  AVERAGE MISS PENALTY: 627.372
LLC1 WRITEBACK ACCESS: 219194  HIT: 164627  MISS: 54567  HIT %: 75.1056  MISS %: 24.8944  AVERAGE MISS PENALTY: 0

LLC2 TOTAL     ACCESS: 550554  HIT: 259995  MISS: 290559  HIT %: 47.2243  MISS %: 52.7757  AVERAGE MISS PENALTY: 583.533
LLC2 LOAD      ACCESS:   233  HIT:   163  MISS:    70  HIT %: 69.9571  MISS %: 30.0429  AVERAGE MISS PENALTY: 798.5
LLC2 RFO       ACCESS:   439  HIT:   389  MISS:    50  HIT %: 88.6105  MISS %: 11.3895  AVERAGE MISS PENALTY: 741.96
LLC2 PREFETCH  ACCESS: 330244  HIT: 94174  MISS: 236070  HIT %: 28.5165  MISS %: 71.4835  AVERAGE MISS PENALTY: 717.828
LLC2 WRITEBACK ACCESS: 219638  HIT: 165269  MISS: 54369  HIT %: 75.2461  MISS %: 24.7539  AVERAGE MISS PENALTY: 0

LLC3 TOTAL     ACCESS: 551207  HIT: 260959  MISS: 290248  HIT %: 47.3432  MISS %: 52.6568  AVERAGE MISS PENALTY: 573.099
LLC3 LOAD      ACCESS:  1071  HIT:   904  MISS:   167  HIT %: 84.4071  MISS %: 15.5929  AVERAGE MISS PENALTY: 917.353
LLC3 RFO       ACCESS:   439  HIT:   404  MISS:    35  HIT %: 92.0273  MISS %: 7.97267  AVERAGE MISS PENALTY: 808.2
LLC3 PREFETCH  ACCESS: 330055  HIT: 94037  MISS: 236018  HIT %: 28.4913  MISS %: 71.5087  AVERAGE MISS PENALTY: 704.011
LLC3 WRITEBACK ACCESS: 219642  HIT: 165614  MISS: 54028  HIT %: 75.4018  MISS %: 24.5982  AVERAGE MISS PENALTY: 0

LLC4 TOTAL     ACCESS: 552814  HIT: 262072  MISS: 290742  HIT %: 47.4069  MISS %: 52.5931  AVERAGE MISS PENALTY: 508.617
LLC4 LOAD      ACCESS:  2313  HIT:  2010  MISS:   303  HIT %: 86.9001  MISS %: 13.0999  AVERAGE MISS PENALTY: 822.644
LLC4 RFO       ACCESS:   444  HIT:   406  MISS:    38  HIT %: 91.4414  MISS %: 8.55856  AVERAGE MISS PENALTY: 923.395
LLC4 PREFETCH  ACCESS: 329980  HIT: 93877  MISS: 236103  HIT %: 28.4493  MISS %: 71.5507  AVERAGE MISS PENALTY: 625.117
LLC4 WRITEBACK ACCESS: 220077  HIT: 165779  MISS: 54298  HIT %: 75.3277  MISS %: 24.6723  AVERAGE MISS PENALTY: 0

LLC5 TOTAL     ACCESS: 552931  HIT: 262264  MISS: 290667  HIT %: 47.4316  MISS %: 52.5684  AVERAGE MISS PENALTY: 511.335
LLC5 LOAD      ACCESS:  1516  HIT:  1358  MISS:   158  HIT %: 89.5778  MISS %: 10.4222  AVERAGE MISS PENALTY: 747.658
LLC5 RFO       ACCESS:   439  HIT:   401  MISS:    38  HIT %: 91.344  MISS %: 8.65604  AVERAGE MISS PENALTY: 855.842
LLC5 PREFETCH  ACCESS: 330889  HIT: 94651  MISS: 236238  HIT %: 28.6051  MISS %: 71.3949  AVERAGE MISS PENALTY: 628.508
LLC5 WRITEBACK ACCESS: 220087  HIT: 165854  MISS: 54233  HIT %: 75.3584  MISS %: 24.6416  AVERAGE MISS PENALTY: 0

LLC6 TOTAL     ACCESS: 552033  HIT: 261315  MISS: 290718  HIT %: 47.3368  MISS %: 52.6632  AVERAGE MISS PENALTY: 571.712
LLC6 LOAD      ACCESS:  1492  HIT:  1315  MISS:   177  HIT %: 88.1367  MISS %: 11.8633  AVERAGE MISS PENALTY: 835.113
LLC6 RFO       ACCESS:   564  HIT:   505  MISS:    59  HIT %: 89.539  MISS %: 10.461  AVERAGE MISS PENALTY: 948.746
LLC6 PREFETCH  ACCESS: 329898  HIT: 93871  MISS: 236027  HIT %: 28.4546  MISS %: 71.5454  AVERAGE MISS PENALTY: 703.323
LLC6 WRITEBACK ACCESS: 220079  HIT: 165624  MISS: 54455  HIT %: 75.2566  MISS %: 24.7434  AVERAGE MISS PENALTY: 0

LLC7 TOTAL     ACCESS: 550770  HIT: 259978  MISS: 290792  HIT %: 47.2026  MISS %: 52.7974  AVERAGE MISS PENALTY: 576.575
LLC7 LOAD      ACCESS:  1422  HIT:  1206  MISS:   216  HIT %: 84.8101  MISS %: 15.1899  AVERAGE MISS PENALTY: 867.62
LLC7 RFO       ACCESS:     0  HIT:     0  MISS:     0  HIT %:     0  MISS %:     0  AVERAGE MISS PENALTY: 0
LLC7 PREFETCH  ACCESS: 330153  HIT: 94072  MISS: 236081  HIT %: 28.4935  MISS %: 71.5065  AVERAGE MISS PENALTY: 709.401
LLC7 WRITEBACK ACCESS: 219195  HIT: 164700  MISS: 54495  HIT %: 75.1386  MISS %: 24.8614  AVERAGE MISS PENALTY: 0

Total Rob stall cycles : 	307311276
Total Load Rob Stall cycles : 	244818358
Average Rob Stall cycles : 	 26
Average Load Rob Stall cycles : 	 82

CPU 1 cumulative IPC: 0.56533 instructions: 200000002 cycles: 353775793
ITLB TOTAL     ACCESS: 32419250  HIT: 32419250  MISS:     0  HIT %:   100  MISS %:     0  AVERAGE MISS PENALTY: 0
ITLB LOAD      ACCESS: 32419250  HIT: 32419250  MISS:     0  HIT %:   100  MISS %:     0  AVERAGE MISS PENALTY: 0
ITLB RFO       ACCESS:     0  HIT:     0  MISS:     0  HIT %:     0  MISS %:     0  AVERAGE MISS PENALTY: 0
ITLB PREFETCH  ACCESS:     0  HIT:     0  MISS:     0  HIT %:     0  MISS %:     0  AVERAGE MISS PENALTY: 0
ITLB WRITEBACK ACCESS:     0  HIT:     0  MISS:     0  HIT %:     0  MISS %:     0  AVERAGE MISS PENALTY: 0

DTLB TOTAL     ACCESS: 33552827  HIT: 33505890  MISS: 46937  HIT %: 99.8601  MISS %: 0.13989  AVERAGE MISS PENALTY: 67.5726
DTLB LOAD      ACCESS: 28302707  HIT: 28256209  MISS: 46498  HIT %: 99.8357  MISS %: 0.164288  AVERAGE MISS PENALTY: 68.1256
DTLB RFO       ACCESS: 5250120  HIT: 5249681  MISS:   439  HIT %: 99.9916  MISS %: 0.00836171  AVERAGE MISS PENALTY: 9
DTLB PREFETCH  ACCESS:     0  HIT:     0  MISS:     0  HIT %:     0  MISS %:     0  AVERAGE MISS PENALTY: 0
DTLB WRITEBACK ACCESS:     0  HIT:     0  MISS:     0  HIT %:     0  MISS %:     0  AVERAGE MISS PENALTY: 0

STLB TOTAL     ACCESS: 46937  HIT: 19485  MISS: 27452  HIT %: 41.5131  MISS %: 58.4869  AVERAGE MISS PENALTY: 100
STLB LOAD      ACCESS: 46498  HIT: 19046  MISS: 27452  HIT %: 40.9609  MISS %: 59.0391  AVERAGE MISS PENALTY: 100
STLB RFO       ACCESS:   439  HIT:   439  MISS:     0  HIT %:   100  MISS %:     0  AVERAGE MISS PENALTY: 0
STLB PREFETCH  ACCESS:     0  HIT:     0  MISS:     0  HIT %:     0  MISS %:     0  AVERAGE MISS PENALTY: 0
STLB WRITEBACK ACCESS:     0  HIT:     0  MISS:     0  HIT %:     0  MISS %:     0  AVERAGE MISS PENALTY: 0

L1D TOTAL     ACCESS: 50008290  HIT: 47355035  MISS: 2653255  HIT %: 94.6944  MISS %: 5.30563  AVERAGE MISS PENALTY: 6.15418e+07
L1D LOAD      ACCESS: 26633399  HIT: 25953542  MISS: 679857  HIT %: 97.4474  MISS %: 2.55265  AVERAGE MISS PENALTY: 2.40176e+08
L1D RFO       ACCESS: 14034986  HIT: 14032347  MISS:  2639  HIT %: 99.9812  MISS %: 0.018803  AVERAGE MISS PENALTY: 117.075
L1D PREFETCH  ACCESS: 9339905  HIT: 7369146  MISS: 1970759  HIT %: 78.8996  MISS %: 21.1004  AVERAGE MISS PENALTY: 268.164
L1D WRITEBACK ACCESS:     0  HIT:     0  MISS:     0  HIT %:     0  MISS %:     0  AVERAGE MISS PENALTY: 0

L1I TOTAL     ACCESS: 44241924  HIT: 44241924  MISS:     0  HIT %:   100  MISS %:     0  AVERAGE MISS PENALTY: 0
L1I LOAD      ACCESS: 44241924  HIT: 44241924  MISS:     0  HIT %:   100  MISS %:     0  AVERAGE MISS PENALTY: 0
L1I RFO       ACCESS:     0  HIT:     0  MISS:     0  HIT %:     0  MISS %:     0  AVERAGE MISS PENALTY: 0
L1I PREFETCH  ACCESS:     0  HIT:     0  MISS:     0  HIT %:     0  MISS %:     0  AVERAGE MISS PENALTY: 0
L1I WRITEBACK ACCESS:     0  HIT:     0  MISS:     0  HIT %:     0  MISS %:     0  AVERAGE MISS PENALTY: 0

L2C TOTAL     ACCESS: 6165841  HIT: 3514822  MISS: 2651019  HIT %: 57.0047  MISS %: 42.9953  AVERAGE MISS PENALTY: 6.01983e+07
L2C LOAD      ACCESS: 666714  HIT:  5471  MISS: 661243  HIT %: 0.820592  MISS %: 99.1794  AVERAGE MISS PENALTY: 2.4134e+08
L2C RFO       ACCESS:  2639  HIT:   315  MISS:  2324  HIT %: 11.9363  MISS %: 88.0637  AVERAGE MISS PENALTY: 867338
L2C PREFETCH  ACCESS: 3739021  HIT: 1751573  MISS: 1987448  HIT %: 46.8458  MISS %: 53.1542  AVERAGE MISS PENALTY: 384.496
L2C WRITEBACK ACCESS: 1757467  HIT: 1757463  MISS:     4  HIT %: 99.9998  MISS %: 0.0002276  AVERAGE MISS PENALTY: 0


LLC0 TOTAL     ACCESS: 549644  HIT: 258968  MISS: 290676  HIT %: 47.1156  MISS %: 52.8844  AVERAGE MISS PENALTY: 509.393
LLC0 LOAD      ACCESS: 42052  HIT: 12394  MISS: 29658  HIT %: 29.473  MISS %: 70.527  AVERAGE MISS PENALTY: 599.528
LLC0 RFO       ACCESS:     0  HIT:     0  MISS:     0  HIT %:     0  MISS %:     0  AVERAGE MISS PENALTY: 0
LLC0 PREFETCH  ACCESS: 288597  HIT: 82253  MISS: 206344  HIT %: 28.501  MISS %: 71.499  AVERAGE MISS PENALTY: 631.409
LLC0 WRITEBACK ACCESS: 218995  HIT: 164321  MISS: 54674  HIT %: 75.0341  MISS %: 24.9659  AVERAGE MISS PENALTY: 0

LLC1 TOTAL     ACCESS: 549326  HIT: 258551  MISS: 290775  HIT %: 47.067  MISS %: 52.933  AVERAGE MISS PENALTY: 508.775
LLC1 LOAD      ACCESS:  4764  HIT:   888  MISS:  3876  HIT %: 18.6398  MISS %: 81.3602  AVERAGE MISS PENALTY: 695.91
LLC1 RFO       ACCESS:     0  HIT:     0  MISS:     0  HIT %:     0  MISS %:     0  AVERAGE MISS PENALTY: 0
LLC1 PREFETCH  ACCESS: 325567  HIT: 93501  MISS: 232066  HIT %: 28.7194  MISS %: 71.2806  AVERAGE MISS PENALTY: 625.864
LLC1 WRITEBACK ACCESS: 218995  HIT: 164162  MISS: 54833  HIT %: 74.9615  MISS %: 25.0385  AVERAGE MISS PENALTY: 0

LLC2 TOTAL     ACCESS: 550094  HIT: 259497  MISS: 290597  HIT %: 47.1732  MISS %: 52.8268  AVERAGE MISS PENALTY: 582.807
LLC2 LOAD      ACCESS:   201  HIT:   137  MISS:    64  HIT %: 68.1592  MISS %: 31.8408  AVERAGE MISS PENALTY: 752.828
LLC2 RFO       ACCESS:   439  HIT:   402  MISS:    37  HIT %: 91.5718  MISS %: 8.42825  AVERAGE MISS PENALTY: 872.513
LLC2 PREFETCH  ACCESS: 330023  HIT: 94122  MISS: 235901  HIT %: 28.5198  MISS %: 71.4802  AVERAGE MISS PENALTY: 717.595
LLC2 WRITEBACK ACCESS: 219431  HIT: 164836  MISS: 54595  HIT %: 75.1197  MISS %: 24.8803  AVERAGE MISS PENALTY: 0

LLC3 TOTAL     ACCESS: 550703  HIT: 259718  MISS: 290985  HIT %: 47.1612  MISS %: 52.8388  AVERAGE MISS PENALTY: 572.677
LLC3 LOAD      ACCESS:  1058  HIT:   861  MISS:   197  HIT %: 81.38  MISS %: 18.62  AVERAGE MISS PENALTY: 826.061
LLC3 RFO       ACCESS:   439  HIT:   404  MISS:    35  HIT %: 92.0273  MISS %: 7.97267  AVERAGE MISS PENALTY: 912.914
LLC3 PREFETCH  ACCESS: 329773  HIT: 93667  MISS: 236106  HIT %: 28.4035  MISS %: 71.5965  AVERAGE MISS PENALTY: 704.962
LLC3 WRITEBACK ACCESS: 219433  HIT: 164786  MISS: 54647  HIT %: 75.0963  MISS %: 24.9037  AVERAGE MISS PENALTY: 0

[...]
 TIMELY PREFETCHES:        337 LATE PREFETCHES: 0 DROPPED PREFETCHES: 0
LLC1 AVERAGE MISS LATENCY: 510.013 cycles
LLC2 TOTAL     ACCESS: 548856  HIT: 258995  MISS: 289861  HIT %: 47.1882  MISS %: 52.8118  AVERAGE MISS PENALTY: 585.548
LLC2 LOAD      ACCESS:   564  HIT:   458  MISS:   106  HIT %: 81.2057  MISS %: 18.7943  AVERAGE MISS PENALTY: 809.774
LLC2 RFO       ACCESS:   439  HIT:   395  MISS:    44  HIT %: 89.9772  MISS %: 10.0228  AVERAGE MISS PENALTY: 784.318
LLC2 PREFETCH  ACCESS: 328312  HIT: 92701  MISS: 235611  HIT %: 28.2356  MISS %: 71.7644  AVERAGE MISS PENALTY: 719.862
LLC2 WRITEBACK ACCESS: 219541  HIT: 165441  MISS: 54100  HIT %: 75.3577  MISS %: 24.6423  AVERAGE MISS PENALTY: 0
LLC2 PREFETCH  REQUESTED:     0  ISSUED:     0  USEFUL:   335  USELESS: 1893042
 USEFUL LOAD PREFETCHES:        335 PREFETCH ISSUED TO LOWER LEVEL:    1888633  ACCURACY: 0.0177377
 TIMELY PREFETCHES:        335 LATE PREFETCHES: 0 DROPPED PREFETCHES: 0
LLC2 AVERAGE MISS LATENCY: 585.548 cycles
LLC3 TOTAL     ACCESS: 549275  HIT: 258964  MISS: 290311  HIT %: 47.1465  MISS %: 52.8535  AVERAGE MISS PENALTY: 572.827
LLC3 LOAD      ACCESS:   994  HIT:   812  MISS:   182  HIT %: 81.6901  MISS %: 18.3099  AVERAGE MISS PENALTY: 824.863
LLC3 RFO       ACCESS:   439  HIT:   398  MISS:    41  HIT %: 90.6606  MISS %: 9.33941  AVERAGE MISS PENALTY: 895
LLC3 PREFETCH  ACCESS: 328300  HIT: 92572  MISS: 235728  HIT %: 28.1974  MISS %: 71.8026  AVERAGE MISS PENALTY: 704.673
LLC3 WRITEBACK ACCESS: 219542  HIT: 165182  MISS: 54360  HIT %: 75.2394  MISS %: 24.7606  AVERAGE MISS PENALTY: 0
LLC3 PREFETCH  REQUESTED:     0  ISSUED:     0  USEFUL:   346  USELESS: 1892896
 USEFUL LOAD PREFETCHES:        346 PREFETCH ISSUED TO LOWER LEVEL:    1888328  ACCURACY: 0.0183231
 TIMELY PREFETCHES:        346 LATE PREFETCHES: 0 DROPPED PREFETCHES: 0
LLC3 AVERAGE MISS LATENCY: 572.827 cycles
LLC4 TOTAL     ACCESS: 549804  HIT: 259676  MISS: 290128  HIT %: 47.2306  MISS %: 52.7694  AVERAGE MISS PENALTY: 508.419
LLC4 LOAD      ACCESS:  2198  HIT:  1935  MISS:   263  HIT %: 88.0346  MISS %: 11.9654  AVERAGE MISS PENALTY: 834.053
LLC4 RFO       ACCESS:    46  HIT:    43  MISS:     3  HIT %: 93.4783  MISS %: 6.52174  AVERAGE MISS PENALTY: 1511.67
LLC4 PREFETCH  ACCESS: 327982  HIT: 92353  MISS: 235629  HIT %: 28.1579  MISS %: 71.8421  AVERAGE MISS PENALTY: 625.062
LLC4 WRITEBACK ACCESS: 219578  HIT: 165345  MISS: 54233  HIT %: 75.3013  MISS %: 24.6987  AVERAGE MISS PENALTY: 0
LLC4 PREFETCH  REQUESTED:     0  ISSUED:     0  USEFUL:   342  USELESS: 1892850
 USEFUL LOAD PREFETCHES:        342 PREFETCH ISSUED TO LOWER LEVEL:    1888232  ACCURACY: 0.0181122
 TIMELY PREFETCHES:        342 LATE PREFETCHES: 0 DROPPED PREFETCHES: 0
LLC4 AVERAGE MISS LATENCY: 508.419 cycles
LLC5 TOTAL     ACCESS: 549784  HIT: 258843  MISS: 290941  HIT %: 47.0809  MISS %: 52.9191  AVERAGE MISS PENALTY: 510.669
LLC5 LOAD      ACCESS:  1323  HIT:  1166  MISS:   157  HIT %: 88.133  MISS %: 11.867  AVERAGE MISS PENALTY: 917.471
LLC5 RFO       ACCESS:    41  HIT:    38  MISS:     3  HIT %: 92.6829  MISS %: 7.31707  AVERAGE MISS PENALTY: 822
LLC5 PREFETCH  ACCESS: 328837  HIT: 92864  MISS: 235973  HIT %: 28.2401  MISS %: 71.7599  AVERAGE MISS PENALTY: 629.005
LLC5 WRITEBACK ACCESS: 219583  HIT: 164775  MISS: 54808  HIT %: 75.04  MISS %: 24.96  AVERAGE MISS PENALTY: 0
LLC5 PREFETCH  REQUESTED:     0  ISSUED:     0  USEFUL:   330  USELESS: 1894396
 USEFUL LOAD PREFETCHES:        330 PREFETCH ISSUED TO LOWER LEVEL:    1889892  ACCURACY: 0.0174613
 TIMELY PREFETCHES:        330 LATE PREFETCHES: 0 DROPPED PREFETCHES: 0
LLC5 AVERAGE MISS LATENCY: 510.669 cycles
LLC6 TOTAL     ACCESS: 548938  HIT: 258730  MISS: 290208  HIT %: 47.1328  MISS %: 52.8672  AVERAGE MISS PENALTY: 574.336
LLC6 LOAD      ACCESS:  1306  HIT:  1147  MISS:   159  HIT %: 87.8254  MISS %: 12.1746  AVERAGE MISS PENALTY: 835.604
LLC6 RFO       ACCESS:   174  HIT:   165  MISS:     9  HIT %: 94.8276  MISS %: 5.17241  AVERAGE MISS PENALTY: 1098.67
LLC6 PREFETCH  ACCESS: 327877  HIT: 92080  MISS: 235797  HIT %: 28.0837  MISS %: 71.9163  AVERAGE MISS PENALTY: 706.261
LLC6 WRITEBACK ACCESS: 219581  HIT: 165338  MISS: 54243  HIT %: 75.297  MISS %: 24.703  AVERAGE MISS PENALTY: 0
LLC6 PREFETCH  REQUESTED:     0  ISSUED:     0  USEFUL:   515  USELESS: 1892981
 USEFUL LOAD PREFETCHES:        515 PREFETCH ISSUED TO LOWER LEVEL:    1888471  ACCURACY: 0.0272707
 TIMELY PREFETCHES:        515 LATE PREFETCHES: 0 DROPPED PREFETCHES: 0
LLC6 AVERAGE MISS LATENCY: 574.336 cycles
LLC7 TOTAL     ACCESS: 548592  HIT: 258655  MISS: 289937  HIT %: 47.1489  MISS %: 52.8511  AVERAGE MISS PENALTY: 576.7
LLC7 LOAD      ACCESS:  1369  HIT:  1158  MISS:   211  HIT %: 84.5873  MISS %: 15.4127  AVERAGE MISS PENALTY: 801.607
LLC7 RFO       ACCESS:     0  HIT:     0  MISS:     0  HIT %:     0  MISS %:     0  AVERAGE MISS PENALTY: 0
LLC7 PREFETCH  ACCESS: 328119  HIT: 92597  MISS: 235522  HIT %: 28.2206  MISS %: 71.7794  AVERAGE MISS PENALTY: 709.222
LLC7 WRITEBACK ACCESS: 219104  HIT: 164900  MISS: 54204  HIT %: 75.2611  MISS %: 24.7389  AVERAGE MISS PENALTY: 0
LLC7 PREFETCH  REQUESTED:     0  ISSUED:     0  USEFUL:   675  USELESS: 1892447
 USEFUL LOAD PREFETCHES:        675 PREFETCH ISSUED TO LOWER LEVEL:    1888110  ACCURACY: 0.03575
 TIMELY PREFETCHES:        675 LATE PREFETCHES: 0 DROPPED PREFETCHES: 0
LLC7 AVERAGE MISS LATENCY: 576.7 cycles
ROI Average ROB Stall Cycles:	26.7963
ROI Total ROB Stalls Cycles:	307238879
ROI TOTAL ROB counter      :	11465713
ROI Average Load ROB Stall Cycles:	82.1421
ROI Total Load ROB Stalls Cycle  :	244762124
ROI Total Load ROB stalls Counter:	2979742
Major fault: 0 Minor fault: 54945

CPU 7 cumulative IPC: 0.566776 instructions: 200000000 cycles: 352873079
ITLB TOTAL     ACCESS: 32415543  HIT: 32415543  MISS:     0  HIT %:   100  MISS %:     0  AVERAGE MISS PENALTY: 0
ITLB LOAD      ACCESS: 32415543  HIT: 32415543  MISS:     0  HIT %:   100  MISS %:     0  AVERAGE MISS PENALTY: 0
ITLB RFO       ACCESS:     0  HIT:     0  MISS:     0  HIT %:     0  MISS %:     0  AVERAGE MISS PENALTY: 0
ITLB PREFETCH  ACCESS:     0  HIT:     0  MISS:     0  HIT %:     0  MISS %:     0  AVERAGE MISS PENALTY: 0
ITLB WRITEBACK ACCESS:     0  HIT:     0  MISS:     0  HIT %:     0  MISS %:     0  AVERAGE MISS PENALTY: 0
ITLB PREFETCH  REQUESTED:     0  ISSUED:     0  USEFUL:     0  USELESS:     0
 USEFUL LOAD PREFETCHES:          0 PREFETCH ISSUED TO LOWER LEVEL:          0  ACCURACY: -nan
 TIMELY PREFETCHES:          0 LATE PREFETCHES: 0 DROPPED PREFETCHES: 0
ITLB AVERAGE MISS LATENCY: -nan cycles
DTLB TOTAL     ACCESS: 33552884  HIT: 33505968  MISS: 46916  HIT %: 99.8602  MISS %: 0.139827  AVERAGE MISS PENALTY: 67.6273
DTLB LOAD      ACCESS: 28302602  HIT: 28256125  MISS: 46477  HIT %: 99.8358  MISS %: 0.164215  AVERAGE MISS PENALTY: 68.181
DTLB RFO       ACCESS: 5250282  HIT: 5249843  MISS:   439  HIT %: 99.9916  MISS %: 0.00836146  AVERAGE MISS PENALTY: 9
DTLB PREFETCH  ACCESS:     0  HIT:     0  MISS:     0  HIT %:     0  MISS %:     0  AVERAGE MISS PENALTY: 0
DTLB WRITEBACK ACCESS:     0  HIT:     0  MISS:     0  HIT %:     0  MISS %:     0  AVERAGE MISS PENALTY: 0
DTLB PREFETCH  REQUESTED:     0  ISSUED:     0  USEFUL:     0  USELESS:     0
 USEFUL LOAD PREFETCHES:          0 PREFETCH ISSUED TO LOWER LEVEL:          0  ACCURACY: -nan
 TIMELY PREFETCHES:          0 LATE PREFETCHES: 0 DROPPED PREFETCHES: 0
DTLB AVERAGE MISS LATENCY: 67.6272 cycles
STLB TOTAL     ACCESS: 46916  HIT: 19463  MISS: 27453  HIT %: 41.4848  MISS %: 58.5152  AVERAGE MISS PENALTY: 100
STLB LOAD      ACCESS: 46477  HIT: 19024  MISS: 27453  HIT %: 40.9321  MISS %: 59.0679  AVERAGE MISS PENALTY: 100
STLB RFO       ACCESS:   439  HIT:   439  MISS:     0  HIT %:   100  MISS %:     0  AVERAGE MISS PENALTY: 0
STLB PREFETCH  ACCESS:     0  HIT:     0  MISS:     0  HIT %:     0  MISS %:     0  AVERAGE MISS PENALTY: 0
STLB WRITEBACK ACCESS:     0  HIT:     0  MISS:     0  HIT %:     0  MISS %:     0  AVERAGE MISS PENALTY: 0
STLB PREFETCH  REQUESTED:     0  ISSUED:     0  USEFUL:     0  USELESS:     0
 USEFUL LOAD PREFETCHES:          0 PREFETCH ISSUED TO LOWER LEVEL:          0  ACCURACY: -nan
 TIMELY PREFETCHES:          0 LATE PREFETCHES: 0 DROPPED PREFETCHES: 0
STLB AVERAGE MISS LATENCY: 100 cycles
L1D TOTAL     ACCESS: 50012512  HIT: 47359256  MISS: 2653256  HIT %: 94.6948  MISS %: 5.30518  AVERAGE MISS PENALTY: 6.13621e+07
L1D LOAD      ACCESS: 26634551  HIT: 25955538  MISS: 679013  HIT %: 97.4506  MISS %: 2.54937  AVERAGE MISS PENALTY: 2.39773e+08
L1D RFO       ACCESS: 14036332  HIT: 14033693  MISS:  2639  HIT %: 99.9812  MISS %: 0.0188012  AVERAGE MISS PENALTY: 63.036
L1D PREFETCH  ACCESS: 9341629  HIT: 7370025  MISS: 1971604  HIT %: 78.8944  MISS %: 21.1056  AVERAGE MISS PENALTY: 268.303
L1D WRITEBACK ACCESS:     0  HIT:     0  MISS:     0  HIT %:     0  MISS %:     0  AVERAGE MISS PENALTY: 0
L1D PREFETCH  REQUESTED: 19683405  ISSUED: 19617527  USEFUL: 1965127  USELESS:  6468
 USEFUL LOAD PREFETCHES:    1965127 PREFETCH ISSUED TO LOWER LEVEL:   10794114  ACCURACY: 18.2055
 TIMELY PREFETCHES:    1965127 LATE PREFETCHES: 775198 DROPPED PREFETCHES: 65878
L1D AVERAGE MISS LATENCY: 308.925 cycles
L1I TOTAL     ACCESS: 44240293  HIT: 44240293  MISS:     0  HIT %:   100  MISS %:     0  AVERAGE MISS PENALTY: 0
L1I LOAD      ACCESS: 44240293  HIT: 44240293  MISS:     0  HIT %:   100  MISS %:     0  AVERAGE MISS PENALTY: 0
L1I RFO       ACCESS:     0  HIT:     0  MISS:     0  HIT %:     0  MISS %:     0  AVERAGE MISS PENALTY: 0
L1I PREFETCH  ACCESS:     0  HIT:     0  MISS:     0  HIT %:     0  MISS %:     0  AVERAGE MISS PENALTY: 0
L1I WRITEBACK ACCESS:     0  HIT:     0  MISS:     0  HIT %:     0  MISS %:     0  AVERAGE MISS PENALTY: 0
L1I PREFETCH  REQUESTED:     0  ISSUED:     0  USEFUL:     0  USELESS:     0
 USEFUL LOAD PREFETCHES:          0 PREFETCH ISSUED TO LOWER LEVEL:          0  ACCURACY: -nan
 TIMELY PREFETCHES:          0 LATE PREFETCHES: 0 DROPPED PREFETCHES: 0
L1I AVERAGE MISS LATENCY: -nan cycles
L2C TOTAL     ACCESS: 6168486  HIT: 3532620  MISS: 2635866  HIT %: 57.2688  MISS %: 42.7312  AVERAGE MISS PENALTY: 6.03735e+07
L2C LOAD      ACCESS: 666002  HIT:  6507  MISS: 659495  HIT %: 0.977024  MISS %: 99.023  AVERAGE MISS PENALTY: 2.41296e+08
L2C RFO       ACCESS:  2639  HIT:  1513  MISS:  1126  HIT %: 57.3323  MISS %: 42.6677  AVERAGE MISS PENALTY: 1.88069e+06
L2C PREFETCH  ACCESS: 3742378  HIT: 1767134  MISS: 1975244  HIT %: 47.2195  MISS %: 52.7805  AVERAGE MISS PENALTY: 386.305
L2C WRITEBACK ACCESS: 1757467  HIT: 1757466  MISS:     1  HIT %: 99.9999  MISS %: 5.69001e-05  AVERAGE MISS PENALTY: 0
L2C PREFETCH  REQUESTED: 4008603  ISSUED: 4008600  USEFUL:  2212  USELESS: 1974410
 USEFUL LOAD PREFETCHES:       2212 PREFETCH ISSUED TO LOWER LEVEL:    4494013  ACCURACY: 0.049221
 TIMELY PREFETCHES:       2212 LATE PREFETCHES: 609750 DROPPED PREFETCHES: 3
L2C AVERAGE MISS LATENCY: 397.038 cycles
LLC0 TOTAL     ACCESS: 548230  HIT: 258303  MISS: 289927  HIT %: 47.1158  MISS %: 52.8842  AVERAGE MISS PENALTY: 510.783
LLC0 LOAD      ACCESS: 41996  HIT: 12407  MISS: 29589  HIT %: 29.5433  MISS %: 70.4567  AVERAGE MISS PENALTY: 601.592
LLC0 RFO       ACCESS:     0  HIT:     0  MISS:     0  HIT %:     0  MISS %:     0  AVERAGE MISS PENALTY: 0
LLC0 PREFETCH  ACCESS: 287258  HIT: 80983  MISS: 206275  HIT %: 28.1917  MISS %: 71.8083  AVERAGE MISS PENALTY: 631.629
LLC0 WRITEBACK ACCESS: 218976  HIT: 164913  MISS: 54063  HIT %: 75.311  MISS %: 24.689  AVERAGE MISS PENALTY: 0
LLC0 PREFETCH  REQUESTED:     0  ISSUED:     0  USEFUL:   265  USELESS: 1657141
 USEFUL LOAD PREFETCHES:        265 PREFETCH ISSUED TO LOWER LEVEL:    1653308  ACCURACY: 0.0160285
 TIMELY PREFETCHES:        265 LATE PREFETCHES: 0 DROPPED PREFETCHES: 0
LLC0 AVERAGE MISS LATENCY: 510.783 cycles
Deadblocks : 235623 Deadblock percentage : 796.32

LLC1 TOTAL     ACCESS: 547539  HIT: 257783  MISS: 289756  HIT %: 47.0803  MISS %: 52.9197  AVERAGE MISS PENALTY: 509.564
LLC1 LOAD      ACCESS:  4315  HIT:   451  MISS:  3864  HIT %: 10.4519  MISS %: 89.5481  AVERAGE MISS PENALTY: 678.692
LLC1 RFO       ACCESS:     0  HIT:     0  MISS:     0  HIT %:     0  MISS %:     0  AVERAGE MISS PENALTY: 0
LLC1 PREFETCH  ACCESS: 324243  HIT: 92415  MISS: 231828  HIT %: 28.5018  MISS %: 71.4982  AVERAGE MISS PENALTY: 625.58
LLC1 WRITEBACK ACCESS: 218981  HIT: 164917  MISS: 54064  HIT %: 75.3111  MISS %: 24.6889  AVERAGE MISS PENALTY: 0
LLC1 PREFETCH  REQUESTED:     0  ISSUED:     0  USEFUL:   337  USELESS: 1863689
 USEFUL LOAD PREFETCHES:        337 PREFETCH ISSUED TO LOWER LEVEL:    1858905  ACCURACY: 0.018129
 TIMELY PREFETCHES:        337 LATE PREFETCHES: 0 DROPPED PREFETCHES: 0
LLC1 AVERAGE MISS LATENCY: 509.564 cycles
LLC2 TOTAL     ACCESS: 548345  HIT: 258467  MISS: 289878  HIT %: 47.1358  MISS %: 52.8642  AVERAGE MISS PENALTY: 583.086
LLC2 LOAD      ACCESS:   176  HIT:   102  MISS:    74  HIT %: 57.9545  MISS %: 42.0455  AVERAGE MISS PENALTY: 853.784
LLC2 RFO       ACCESS:   439  HIT:   406  MISS:    33  HIT %: 92.4829  MISS %: 7.51708  AVERAGE MISS PENALTY: 765.667
LLC2 PREFETCH  ACCESS: 328310  HIT: 92538  MISS: 235772  HIT %: 28.1862  MISS %: 71.8138  AVERAGE MISS PENALTY: 716.52
LLC2 WRITEBACK ACCESS: 219420  HIT: 165421  MISS: 53999  HIT %: 75.3901  MISS %: 24.6099  AVERAGE MISS PENALTY: 0
LLC2 PREFETCH  REQUESTED:     0  ISSUED:     0  USEFUL:   335  USELESS: 1893042
 USEFUL LOAD PREFETCHES:        335 PREFETCH ISSUED TO LOWER LEVEL:    1888633  ACCURACY: 0.0177377
 TIMELY PREFETCHES:        335 LATE PREFETCHES: 0 DROPPED PREFETCHES: 0
LLC2 AVERAGE MISS LATENCY: 583.086 cycles
LLC3 TOTAL     ACCESS: 548968  HIT: 259331  MISS: 289637  HIT %: 47.2397  MISS %: 52.7603  AVERAGE MISS PENALTY: 573.253
LLC3 LOAD      ACCESS:  1017  HIT:   819  MISS:   198  HIT %: 80.531  MISS %: 19.469  AVERAGE MISS PENALTY: 845.273
LLC3 RFO       ACCESS:   439  HIT:   390  MISS:    49  HIT %: 88.8383  MISS %: 11.1617  AVERAGE MISS PENALTY: 826
LLC3 PREFETCH  ACCESS: 328091  HIT: 92526  MISS: 235565  HIT %: 28.2013  MISS %: 71.7987  AVERAGE MISS PENALTY: 703.956
LLC3 WRITEBACK ACCESS: 219421  HIT: 165596  MISS: 53825  HIT %: 75.4695  MISS %: 24.5305  AVERAGE MISS PENALTY: 0
LLC3 PREFETCH  REQUESTED:     0  ISSUED:     0  USEFUL:   346  USELESS: 1892896
 USEFUL LOAD PREFETCHES:        346 PREFETCH ISSUED TO LOWER LEVEL:    1888328  ACCURACY: 0.0183231
 TIMELY PREFETCHES:        346 LATE PREFETCHES: 0 DROPPED PREFETCHES: 0
LLC3 AVERAGE MISS LATENCY: 573.253 cycles
LLC4 TOTAL     ACCESS: 549770  HIT: 260182  MISS: 289588  HIT %: 47.3256  MISS %: 52.6744  AVERAGE MISS PENALTY: 509.5
LLC4 LOAD      ACCESS:  2245  HIT:  1979  MISS:   266  HIT %: 88.1514  MISS %: 11.8486  AVERAGE MISS PENALTY: 879.82
LLC4 RFO       ACCESS:    42  HIT:    42  MISS:     0  HIT %:   100  MISS %:     0  AVERAGE MISS PENALTY: 0
LLC4 PREFETCH  ACCESS: 328032  HIT: 92560  MISS: 235472  HIT %: 28.2168  MISS %: 71.7832  AVERAGE MISS PENALTY: 625.599
LLC4 WRITEBACK ACCESS: 219451  HIT: 165601  MISS: 53850  HIT %: 75.4615  MISS %: 24.5385  AVERAGE MISS PENALTY: 0
LLC4 PREFETCH  REQUESTED:     0  ISSUED:     0  USEFUL:   342  USELESS: 1892850
 USEFUL LOAD PREFETCHES:        342 PREFETCH ISSUED TO LOWER LEVEL:    1888232  ACCURACY: 0.0181122
 TIMELY PREFETCHES:        342 LATE PREFETCHES: 0 DROPPED PREFETCHES: 0
LLC4 AVERAGE MISS LATENCY: 509.5 cycles
LLC5 TOTAL     ACCESS: 549760  HIT: 259761  MISS: 289999  HIT %: 47.2499  MISS %: 52.7501  AVERAGE MISS PENALTY: 510.754
LLC5 LOAD      ACCESS:  1352  HIT:  1207  MISS:   145  HIT %: 89.2751  MISS %: 10.7249  AVERAGE MISS PENALTY: 912.138
LLC5 RFO       ACCESS:    34  HIT:    33  MISS:     1  HIT %: 97.0588  MISS %: 2.94118  AVERAGE MISS PENALTY: 286
LLC5 PREFETCH  ACCESS: 328917  HIT: 93120  MISS: 235797  HIT %: 28.3111  MISS %: 71.6889  AVERAGE MISS PENALTY: 627.597
LLC5 WRITEBACK ACCESS: 219457  HIT: 165401  MISS: 54056  HIT %: 75.3683  MISS %: 24.6317  AVERAGE MISS PENALTY: 0
LLC5 PREFETCH  REQUESTED:     0  ISSUED:     0  USEFUL:   330  USELESS: 1894396
 USEFUL LOAD PREFETCHES:        330 PREFETCH ISSUED TO LOWER LEVEL:    1889892  ACCURACY: 0.0174613
 TIMELY PREFETCHES:        330 LATE PREFETCHES: 0 DROPPED PREFETCHES: 0
LLC5 AVERAGE MISS LATENCY: 510.754 cycles
LLC6 TOTAL     ACCESS: 548887  HIT: 259498  MISS: 289389  HIT %: 47.2771  MISS %: 52.7229  AVERAGE MISS PENALTY: 572.957
LLC6 LOAD      ACCESS:  1339  HIT:  1139  MISS:   200  HIT %: 85.0635  MISS %: 14.9365  AVERAGE MISS PENALTY: 881.685
LLC6 RFO       ACCESS:   164  HIT:   150  MISS:    14  HIT %: 91.4634  MISS %: 8.53659  AVERAGE MISS PENALTY: 1010.07
LLC6 PREFETCH  ACCESS: 327935  HIT: 92565  MISS: 235370  HIT %: 28.2266  MISS %: 71.7734  AVERAGE MISS PENALTY: 703.645
LLC6 WRITEBACK ACCESS: 219449  HIT: 165644  MISS: 53805  HIT %: 75.4818  MISS %: 24.5182  AVERAGE MISS PENALTY: 0
LLC6 PREFETCH  REQUESTED:     0  ISSUED:     0  USEFUL:   515  USELESS: 1892981
 USEFUL LOAD PREFETCHES:        515 PREFETCH ISSUED TO LOWER LEVEL:    1888471  ACCURACY: 0.0272707
 TIMELY PREFETCHES:        515 LATE PREFETCHES: 0 DROPPED PREFETCHES: 0
LLC6 AVERAGE MISS LATENCY: 572.957 cycles
LLC7 TOTAL     ACCESS: 548492  HIT: 258736  MISS: 289756  HIT %: 47.1722  MISS %: 52.8278  AVERAGE MISS PENALTY: 577.112
LLC7 LOAD      ACCESS:  1373  HIT:  1182  MISS:   191  HIT %: 86.0889  MISS %: 13.9111  AVERAGE MISS PENALTY: 797.288
LLC7 RFO       ACCESS:     0  HIT:     0  MISS:     0  HIT %:     0  MISS %:     0  AVERAGE MISS PENALTY: 0
LLC7 PREFETCH  ACCESS: 328148  HIT: 92478  MISS: 235670  HIT %: 28.1818  MISS %: 71.8182  AVERAGE MISS PENALTY: 708.913
LLC7 WRITEBACK ACCESS: 218971  HIT: 165076  MISS: 53895  HIT %: 75.3872  MISS %: 24.6128  AVERAGE MISS PENALTY: 0
LLC7 PREFETCH  REQUESTED:     0  ISSUED:     0  USEFUL:   675  USELESS: 1892447
 USEFUL LOAD PREFETCHES:        675 PREFETCH ISSUED TO LOWER LEVEL:    1888110  ACCURACY: 0.03575
 TIMELY PREFETCHES:        675 LATE PREFETCHES: 0 DROPPED PREFETCHES: 0
LLC7 AVERAGE MISS LATENCY: 577.112 cycles
ROI Average ROB Stall Cycles:	26.7234
ROI Total ROB Stalls Cycles:	306423702
ROI TOTAL ROB counter      :	11466482
ROI Average Load ROB Stall Cycles:	81.899
ROI Total Load ROB Stalls Cycle  :	244051247
ROI Total Load ROB stalls Counter:	2979905
Major fault: 0 Minor fault: 55007








Interconnect Stats 
LINK 0 BW : 0LINK 1 BW : 0LINK 2 BW : 0LINK 3 BW : 0LINK 4 BW : 0LINK 5 BW : 0LINK 6 BW : 0LINK 7 BW : 0
DRAM Statistics
 CHANNEL 0
 RQ ROW_BUFFER_HIT: 3375312  ROW_BUFFER_MISS: 4185403
 DBUS_CONGESTED: 17801252
 WQ ROW_BUFFER_HIT: 556457  ROW_BUFFER_MISS: 6481122  FULL:  2354

 CHANNEL 1
 RQ ROW_BUFFER_HIT: 3376119  ROW_BUFFER_MISS: 4184870
 DBUS_CONGESTED: 17801252
 WQ ROW_BUFFER_HIT: 558243  ROW_BUFFER_MISS: 6478414  FULL:  2224

 AVG_CONGESTED_CYCLE: 6
DRAM PAGES: 2097152
Allocated PAGES: 439794
L2C destructor called
L1D destructor called
L1I destructor called
STLB destructor called
DTLB destructor called
ITLB destructor called
L2C destructor called
L1D destructor called
L1I destructor called
STLB destructor called
DTLB destructor called
ITLB destructor called
L2C destructor called
L1D destructor called
L1I destructor called
STLB destructor called
DTLB destructor called
ITLB destructor called
L2C destructor called
L1D destructor called
L1I destructor called
STLB destructor called
DTLB destructor called
ITLB destructor called
L2C destructor called
L1D destructor called
L1I destructor called
STLB destructor called
DTLB destructor called
ITLB destructor called
L2C destructor called
L1D destructor called
L1I destructor called
STLB destructor called
DTLB destructor called
ITLB destructor called
L2C destructor called
L1D destructor called
L1I destructor called
STLB destructor called
DTLB destructor called
ITLB destructor called
L2C destructor called
L1D destructor called
L1I destructor called
STLB destructor called
DTLB destructor called
ITLB destructor called
