
*** ChampSim Multicore Out-of-Order Simulator ***

Warmup Instructions: 200000000
Simulation Instructions: 200000000
Number of CPUs: 8
threads:1

L1I Configuration:
L1I_SET:64
L1I_WAY:8
L1I_RQ_SIZE:64
L1I_WQ_SIZE:64
L1I_PQ_SIZE:8
L1I_MSHR_SIZE:8

L1D Configuration:
L1D_SET:64
L1D_WAY:12
L1D_RQ_SIZE:64
L1D_WQ_SIZE:64
L1D_PQ_SIZE:8
L1D_MSHR_SIZE:16

L2C Configuration:
L2C_SET:1024
L2C_WAY:8
L2C_RQ_SIZE:32
L2C_WQ_SIZE:32
L2C_PQ_SIZE:16
L2C_MSHR_SIZE:32

LLC Configuration:
LLC_SET:2048
LLC_WAY:16
LLC SLICES:8
LLC_RQ_SIZE:64
LLC_WQ_SIZE:64
LLC_PQ_SIZE:32
LLC_MSHR_SIZE:64

Interconnect OFF
Attacker deprioritize is: OFF
Off-chip DRAM Size: 8192 MB Channels: 2 Width: 64-bit Data Rate: 3200 MT/s
PAGE SIZE in KB: 4.000000 
PAGE SIZE in MB: 0.003906 
PAGE offset in bits: 12 
CEASER-S_LLC:0
MIRAGE : 1
CEASER_LATENCY:3
REMAP : OFF
Partitions : 1
Multi-Step : OFF
BFS : OFF

CPU 0 runs /home/anubhav/spec_2017/657.xz_s-2302B.champsimtrace.xz
CPU 1 runs /home/anubhav/spec_2017/657.xz_s-2302B.champsimtrace.xz
CPU 2 runs /home/anubhav/spec_2017/657.xz_s-2302B.champsimtrace.xz
CPU 3 runs /home/anubhav/spec_2017/657.xz_s-2302B.champsimtrace.xz
CPU 4 runs /home/anubhav/spec_2017/657.xz_s-2302B.champsimtrace.xz
CPU 5 runs /home/anubhav/spec_2017/657.xz_s-2302B.champsimtrace.xz
CPU 6 runs /home/anubhav/spec_2017/657.xz_s-2302B.champsimtrace.xz
CPU 7 runs /home/anubhav/spec_2017/657.xz_s-2302B.champsimtrace.xz
CPU 0 Bimodal branch predictor
Initialize Hawkeye state
Initialize Hawkeye state
Initialize Hawkeye state
Initialize Hawkeye state
Initialize Hawkeye state
Initialize Hawkeye state
Initialize Hawkeye state
Initialize Hawkeye state
CPU 1 Bimodal branch predictor
Initialize Hawkeye state
Initialize Hawkeye state
Initialize Hawkeye state
Initialize Hawkeye state
Initialize Hawkeye state
Initialize Hawkeye state
Initialize Hawkeye state
Initialize Hawkeye state
CPU 2 Bimodal branch predictor
Initialize Hawkeye state
Initialize Hawkeye state
Initialize Hawkeye state
Initialize Hawkeye state
Initialize Hawkeye state
Initialize Hawkeye state
Initialize Hawkeye state
Initialize Hawkeye state
CPU 3 Bimodal branch predictor
Initialize Hawkeye state
Initialize Hawkeye state
Initialize Hawkeye state
Initialize Hawkeye state
Initialize Hawkeye state
Initialize Hawkeye state
Initialize Hawkeye state
Initialize Hawkeye state
CPU 4 Bimodal branch predictor
Initialize Hawkeye state
Initialize Hawkeye state
Initialize Hawkeye state
Initialize Hawkeye state
Initialize Hawkeye state
Initialize Hawkeye state
Initialize Hawkeye state
Initialize Hawkeye state
CPU 5 Bimodal branch predictor
Initialize Hawkeye state
Initialize Hawkeye state
Initialize Hawkeye state
Initialize Hawkeye state
Initialize Hawkeye state
Initialize Hawkeye state
Initialize Hawkeye state
Initialize Hawkeye state
CPU 6 Bimodal branch predictor
Initialize Hawkeye state
Initialize Hawkeye state
Initialize Hawkeye state
Initialize Hawkeye state
Initialize Hawkeye state
Initialize Hawkeye state
Initialize Hawkeye state
Initialize Hawkeye state
CPU 7 Bimodal branch predictor
Initialize Hawkeye state
Initialize Hawkeye state
Initialize Hawkeye state
Initialize Hawkeye state
Initialize Hawkeye state
Initialize Hawkeye state
Initialize Hawkeye state
Initialize Hawkeye state
Heartbeat CPU 3 instructions: 10000001 cycles: 7438817 heartbeat IPC: 1.3443 cumulative IPC: 1.3443 (Simulation time: 0 hr 20 min 50 sec) 
 Total Blocks : 262144 Invalid Blocks : 70019
Heartbeat CPU 4 instructions: 10000001 cycles: 7438840 heartbeat IPC: 1.3443 cumulative IPC: 1.3443 (Simulation time: 0 hr 20 min 50 sec) 
 Total Blocks : 262144 Invalid Blocks : 70019
Heartbeat CPU 2 instructions: 10000001 cycles: 7439123 heartbeat IPC: 1.34424 cumulative IPC: 1.34424 (Simulation time: 0 hr 20 min 50 sec) 
 Total Blocks : 262144 Invalid Blocks : 70013
Heartbeat CPU 1 instructions: 10000001 cycles: 7439517 heartbeat IPC: 1.34417 cumulative IPC: 1.34417 (Simulation time: 0 hr 20 min 50 sec) 
 Total Blocks : 262144 Invalid Blocks : 70004
Heartbeat CPU 5 instructions: 10000001 cycles: 7439848 heartbeat IPC: 1.34411 cumulative IPC: 1.34411 (Simulation time: 0 hr 20 min 50 sec) 
 Total Blocks : 262144 Invalid Blocks : 69998
Heartbeat CPU 0 instructions: 10000001 cycles: 7439983 heartbeat IPC: 1.34409 cumulative IPC: 1.34409 (Simulation time: 0 hr 20 min 50 sec) 
 Total Blocks : 262144 Invalid Blocks : 69997
Heartbeat CPU 6 instructions: 10000001 cycles: 7440313 heartbeat IPC: 1.34403 cumulative IPC: 1.34403 (Simulation time: 0 hr 20 min 50 sec) 
 Total Blocks : 262144 Invalid Blocks : 69994
Heartbeat CPU 7 instructions: 10000001 cycles: 7440718 heartbeat IPC: 1.34396 cumulative IPC: 1.34396 (Simulation time: 0 hr 20 min 50 sec) 
 Total Blocks : 262144 Invalid Blocks : 69986
Heartbeat CPU 3 instructions: 20000001 cycles: 14766863 heartbeat IPC: 1.36462 cumulative IPC: 1.35438 (Simulation time: 0 hr 36 min 29 sec) 
 Total Blocks : 262144 Invalid Blocks : 26680
Heartbeat CPU 2 instructions: 20000001 cycles: 14766989 heartbeat IPC: 1.36465 cumulative IPC: 1.35437 (Simulation time: 0 hr 36 min 30 sec) 
 Total Blocks : 262144 Invalid Blocks : 26679
Heartbeat CPU 4 instructions: 20000001 cycles: 14767097 heartbeat IPC: 1.36458 cumulative IPC: 1.35436 (Simulation time: 0 hr 36 min 30 sec) 
 Total Blocks : 262144 Invalid Blocks : 26679
Heartbeat CPU 1 instructions: 20000001 cycles: 14767969 heartbeat IPC: 1.36454 cumulative IPC: 1.35428 (Simulation time: 0 hr 36 min 30 sec) 
 Total Blocks : 262144 Invalid Blocks : 26678
Heartbeat CPU 0 instructions: 20000001 cycles: 14769126 heartbeat IPC: 1.36442 cumulative IPC: 1.35418 (Simulation time: 0 hr 36 min 30 sec) 
 Total Blocks : 262144 Invalid Blocks : 26677
Heartbeat CPU 5 instructions: 20000001 cycles: 14769184 heartbeat IPC: 1.36438 cumulative IPC: 1.35417 (Simulation time: 0 hr 36 min 30 sec) 
 Total Blocks : 262144 Invalid Blocks : 26677
Heartbeat CPU 6 instructions: 20000001 cycles: 14769377 heartbeat IPC: 1.36443 cumulative IPC: 1.35415 (Simulation time: 0 hr 36 min 30 sec) 
 Total Blocks : 262144 Invalid Blocks : 26677
Heartbeat CPU 7 instructions: 20000001 cycles: 14769821 heartbeat IPC: 1.36442 cumulative IPC: 1.35411 (Simulation time: 0 hr 36 min 30 sec) 
 Total Blocks : 262144 Invalid Blocks : 26677
Heartbeat CPU 3 instructions: 30000003 cycles: 22224440 heartbeat IPC: 1.34092 cumulative IPC: 1.34987 (Simulation time: 0 hr 50 min 40 sec) 
 Total Blocks : 262144 Invalid Blocks : 9571
Heartbeat CPU 4 instructions: 30000003 cycles: 22225034 heartbeat IPC: 1.34085 cumulative IPC: 1.34983 (Simulation time: 0 hr 50 min 40 sec) 
 Total Blocks : 262144 Invalid Blocks : 9571
Heartbeat CPU 2 instructions: 30000003 cycles: 22225112 heartbeat IPC: 1.34082 cumulative IPC: 1.34982 (Simulation time: 0 hr 50 min 40 sec) 
 Total Blocks : 262144 Invalid Blocks : 9571
Heartbeat CPU 1 instructions: 30000003 cycles: 22225810 heartbeat IPC: 1.34087 cumulative IPC: 1.34978 (Simulation time: 0 hr 50 min 40 sec) 
 Total Blocks : 262144 Invalid Blocks : 9571
Heartbeat CPU 0 instructions: 30000003 cycles: 22227779 heartbeat IPC: 1.34072 cumulative IPC: 1.34966 (Simulation time: 0 hr 50 min 41 sec) 
 Total Blocks : 262144 Invalid Blocks : 9571
Heartbeat CPU 7 instructions: 30000003 cycles: 22227823 heartbeat IPC: 1.34084 cumulative IPC: 1.34966 (Simulation time: 0 hr 50 min 41 sec) 
 Total Blocks : 262144 Invalid Blocks : 9571
Heartbeat CPU 6 instructions: 30000003 cycles: 22227886 heartbeat IPC: 1.34075 cumulative IPC: 1.34966 (Simulation time: 0 hr 50 min 41 sec) 
 Total Blocks : 262144 Invalid Blocks : 9571
Heartbeat CPU 5 instructions: 30000003 cycles: 22228008 heartbeat IPC: 1.34069 cumulative IPC: 1.34965 (Simulation time: 0 hr 50 min 41 sec) 
 Total Blocks : 262144 Invalid Blocks : 9570
Heartbeat CPU 3 instructions: 40000000 cycles: 29804933 heartbeat IPC: 1.31918 cumulative IPC: 1.34206 (Simulation time: 1 hr 3 min 23 sec) 
 Total Blocks : 262144 Invalid Blocks : 3695
Heartbeat CPU 2 instructions: 40000000 cycles: 29805423 heartbeat IPC: 1.31921 cumulative IPC: 1.34204 (Simulation time: 1 hr 3 min 23 sec) 
 Total Blocks : 262144 Invalid Blocks : 3693
Heartbeat CPU 4 instructions: 40000000 cycles: 29805721 heartbeat IPC: 1.31914 cumulative IPC: 1.34202 (Simulation time: 1 hr 3 min 23 sec) 
 Total Blocks : 262144 Invalid Blocks : 3692
Heartbeat CPU 1 instructions: 40000000 cycles: 29806070 heartbeat IPC: 1.31922 cumulative IPC: 1.34201 (Simulation time: 1 hr 3 min 23 sec) 
 Total Blocks : 262144 Invalid Blocks : 3692
Heartbeat CPU 0 instructions: 40000000 cycles: 29809117 heartbeat IPC: 1.31903 cumulative IPC: 1.34187 (Simulation time: 1 hr 3 min 23 sec) 
 Total Blocks : 262144 Invalid Blocks : 3692
Heartbeat CPU 7 instructions: 40000000 cycles: 29809424 heartbeat IPC: 1.31898 cumulative IPC: 1.34186 (Simulation time: 1 hr 3 min 23 sec) 
 Total Blocks : 262144 Invalid Blocks : 3692
Heartbeat CPU 6 instructions: 40000000 cycles: 29809506 heartbeat IPC: 1.31898 cumulative IPC: 1.34185 (Simulation time: 1 hr 3 min 23 sec) 
 Total Blocks : 262144 Invalid Blocks : 3692
Heartbeat CPU 5 instructions: 40000000 cycles: 29809835 heartbeat IPC: 1.31894 cumulative IPC: 1.34184 (Simulation time: 1 hr 3 min 24 sec) 
 Total Blocks : 262144 Invalid Blocks : 3692
Heartbeat CPU 3 instructions: 50000003 cycles: 37392363 heartbeat IPC: 1.31797 cumulative IPC: 1.33717 (Simulation time: 1 hr 16 min 15 sec) 
 Total Blocks : 262144 Invalid Blocks : 1435
Heartbeat CPU 2 instructions: 50000003 cycles: 37392561 heartbeat IPC: 1.31802 cumulative IPC: 1.33716 (Simulation time: 1 hr 16 min 15 sec) 
 Total Blocks : 262144 Invalid Blocks : 1435
Heartbeat CPU 4 instructions: 50000003 cycles: 37393053 heartbeat IPC: 1.31799 cumulative IPC: 1.33715 (Simulation time: 1 hr 16 min 15 sec) 
 Total Blocks : 262144 Invalid Blocks : 1435
Heartbeat CPU 1 instructions: 50000003 cycles: 37393468 heartbeat IPC: 1.31798 cumulative IPC: 1.33713 (Simulation time: 1 hr 16 min 15 sec) 
 Total Blocks : 262144 Invalid Blocks : 1435
Heartbeat CPU 0 instructions: 50000003 cycles: 37397305 heartbeat IPC: 1.31784 cumulative IPC: 1.33699 (Simulation time: 1 hr 16 min 16 sec) 
 Total Blocks : 262144 Invalid Blocks : 1435
Heartbeat CPU 6 instructions: 50000003 cycles: 37397646 heartbeat IPC: 1.31785 cumulative IPC: 1.33698 (Simulation time: 1 hr 16 min 16 sec) 
 Total Blocks : 262144 Invalid Blocks : 1435
Heartbeat CPU 5 instructions: 50000003 cycles: 37398148 heartbeat IPC: 1.31782 cumulative IPC: 1.33696 (Simulation time: 1 hr 16 min 16 sec) 
 Total Blocks : 262144 Invalid Blocks : 1435
Heartbeat CPU 7 instructions: 50000003 cycles: 37398157 heartbeat IPC: 1.31774 cumulative IPC: 1.33696 (Simulation time: 1 hr 16 min 16 sec) 
 Total Blocks : 262144 Invalid Blocks : 1435
Heartbeat CPU 3 instructions: 60000000 cycles: 44894740 heartbeat IPC: 1.33291 cumulative IPC: 1.33646 (Simulation time: 1 hr 29 min 7 sec) 
 Total Blocks : 262144 Invalid Blocks : 537
Heartbeat CPU 2 instructions: 60000000 cycles: 44895039 heartbeat IPC: 1.33289 cumulative IPC: 1.33645 (Simulation time: 1 hr 29 min 7 sec) 
 Total Blocks : 262144 Invalid Blocks : 537
Heartbeat CPU 4 instructions: 60000000 cycles: 44895659 heartbeat IPC: 1.33287 cumulative IPC: 1.33643 (Simulation time: 1 hr 29 min 7 sec) 
 Total Blocks : 262144 Invalid Blocks : 537
Heartbeat CPU 1 instructions: 60000000 cycles: 44896060 heartbeat IPC: 1.33287 cumulative IPC: 1.33642 (Simulation time: 1 hr 29 min 8 sec) 
 Total Blocks : 262144 Invalid Blocks : 537
Heartbeat CPU 0 instructions: 60000000 cycles: 44900502 heartbeat IPC: 1.33276 cumulative IPC: 1.33629 (Simulation time: 1 hr 29 min 8 sec) 
 Total Blocks : 262144 Invalid Blocks : 537
Heartbeat CPU 7 instructions: 60000000 cycles: 44901268 heartbeat IPC: 1.33278 cumulative IPC: 1.33627 (Simulation time: 1 hr 29 min 8 sec) 
 Total Blocks : 262144 Invalid Blocks : 537
Heartbeat CPU 6 instructions: 60000000 cycles: 44901299 heartbeat IPC: 1.33268 cumulative IPC: 1.33626 (Simulation time: 1 hr 29 min 8 sec) 
 Total Blocks : 262144 Invalid Blocks : 537
Heartbeat CPU 5 instructions: 60000000 cycles: 44901584 heartbeat IPC: 1.33272 cumulative IPC: 1.33626 (Simulation time: 1 hr 29 min 8 sec) 
 Total Blocks : 262144 Invalid Blocks : 537
Heartbeat CPU 3 instructions: 70000000 cycles: 52208721 heartbeat IPC: 1.36724 cumulative IPC: 1.34077 (Simulation time: 1 hr 41 min 31 sec) 
 Total Blocks : 262144 Invalid Blocks : 208
Heartbeat CPU 2 instructions: 70000000 cycles: 52209269 heartbeat IPC: 1.3672 cumulative IPC: 1.34076 (Simulation time: 1 hr 41 min 31 sec) 
 Total Blocks : 262144 Invalid Blocks : 208
Heartbeat CPU 4 instructions: 70000000 cycles: 52209985 heartbeat IPC: 1.36718 cumulative IPC: 1.34074 (Simulation time: 1 hr 41 min 31 sec) 
 Total Blocks : 262144 Invalid Blocks : 208
Heartbeat CPU 1 instructions: 70000000 cycles: 52210504 heartbeat IPC: 1.36716 cumulative IPC: 1.34073 (Simulation time: 1 hr 41 min 31 sec) 
 Total Blocks : 262144 Invalid Blocks : 208
Heartbeat CPU 0 instructions: 70000000 cycles: 52215618 heartbeat IPC: 1.36703 cumulative IPC: 1.3406 (Simulation time: 1 hr 41 min 32 sec) 
 Total Blocks : 262144 Invalid Blocks : 208
Heartbeat CPU 7 instructions: 70000000 cycles: 52215884 heartbeat IPC: 1.36713 cumulative IPC: 1.34059 (Simulation time: 1 hr 41 min 32 sec) 
 Total Blocks : 262144 Invalid Blocks : 208
Heartbeat CPU 6 instructions: 70000000 cycles: 52216062 heartbeat IPC: 1.3671 cumulative IPC: 1.34058 (Simulation time: 1 hr 41 min 32 sec) 
 Total Blocks : 262144 Invalid Blocks : 208
Heartbeat CPU 5 instructions: 70000000 cycles: 52216613 heartbeat IPC: 1.36705 cumulative IPC: 1.34057 (Simulation time: 1 hr 41 min 32 sec) 
 Total Blocks : 262144 Invalid Blocks : 208
Heartbeat CPU 3 instructions: 80000002 cycles: 59585220 heartbeat IPC: 1.35566 cumulative IPC: 1.34261 (Simulation time: 1 hr 53 min 58 sec) 
 Total Blocks : 262144 Invalid Blocks : 78
Heartbeat CPU 2 instructions: 80000002 cycles: 59585807 heartbeat IPC: 1.35565 cumulative IPC: 1.3426 (Simulation time: 1 hr 53 min 58 sec) 
 Total Blocks : 262144 Invalid Blocks : 78
Heartbeat CPU 4 instructions: 80000002 cycles: 59586452 heartbeat IPC: 1.35566 cumulative IPC: 1.34259 (Simulation time: 1 hr 53 min 58 sec) 
 Total Blocks : 262144 Invalid Blocks : 78
Heartbeat CPU 1 instructions: 80000002 cycles: 59586984 heartbeat IPC: 1.35566 cumulative IPC: 1.34258 (Simulation time: 1 hr 53 min 58 sec) 
 Total Blocks : 262144 Invalid Blocks : 78
Heartbeat CPU 0 instructions: 80000002 cycles: 59592643 heartbeat IPC: 1.35556 cumulative IPC: 1.34245 (Simulation time: 1 hr 53 min 59 sec) 
 Total Blocks : 262144 Invalid Blocks : 78
Heartbeat CPU 7 instructions: 80000002 cycles: 59592679 heartbeat IPC: 1.3556 cumulative IPC: 1.34245 (Simulation time: 1 hr 53 min 59 sec) 
 Total Blocks : 262144 Invalid Blocks : 78
Heartbeat CPU 6 instructions: 80000002 cycles: 59592990 heartbeat IPC: 1.35558 cumulative IPC: 1.34244 (Simulation time: 1 hr 53 min 59 sec) 
 Total Blocks : 262144 Invalid Blocks : 78
Heartbeat CPU 5 instructions: 80000002 cycles: 59593484 heartbeat IPC: 1.35559 cumulative IPC: 1.34243 (Simulation time: 1 hr 53 min 59 sec) 
 Total Blocks : 262144 Invalid Blocks : 78
Heartbeat CPU 3 instructions: 90000003 cycles: 67121866 heartbeat IPC: 1.32685 cumulative IPC: 1.34084 (Simulation time: 2 hr 5 min 50 sec) 
 Total Blocks : 262144 Invalid Blocks : 31
Heartbeat CPU 2 instructions: 90000003 cycles: 67122234 heartbeat IPC: 1.32689 cumulative IPC: 1.34084 (Simulation time: 2 hr 5 min 50 sec) 
 Total Blocks : 262144 Invalid Blocks : 31
Heartbeat CPU 4 instructions: 90000003 cycles: 67123202 heartbeat IPC: 1.32683 cumulative IPC: 1.34082 (Simulation time: 2 hr 5 min 50 sec) 
 Total Blocks : 262144 Invalid Blocks : 31
Heartbeat CPU 1 instructions: 90000003 cycles: 67123274 heartbeat IPC: 1.32691 cumulative IPC: 1.34082 (Simulation time: 2 hr 5 min 50 sec) 
 Total Blocks : 262144 Invalid Blocks : 31
Heartbeat CPU 7 instructions: 90000003 cycles: 67129759 heartbeat IPC: 1.32677 cumulative IPC: 1.34069 (Simulation time: 2 hr 5 min 51 sec) 
 Total Blocks : 262144 Invalid Blocks : 30
Heartbeat CPU 0 instructions: 90000003 cycles: 67130037 heartbeat IPC: 1.32672 cumulative IPC: 1.34068 (Simulation time: 2 hr 5 min 51 sec) 
 Total Blocks : 262144 Invalid Blocks : 30
Heartbeat CPU 6 instructions: 90000003 cycles: 67130275 heartbeat IPC: 1.32674 cumulative IPC: 1.34068 (Simulation time: 2 hr 5 min 51 sec) 
 Total Blocks : 262144 Invalid Blocks : 30
Heartbeat CPU 5 instructions: 90000003 cycles: 67130617 heartbeat IPC: 1.32676 cumulative IPC: 1.34067 (Simulation time: 2 hr 5 min 51 sec) 
 Total Blocks : 262144 Invalid Blocks : 30
Heartbeat CPU 3 instructions: 100000002 cycles: 74285110 heartbeat IPC: 1.39602 cumulative IPC: 1.34616 (Simulation time: 2 hr 18 min 34 sec) 
 Total Blocks : 262144 Invalid Blocks : 13
Heartbeat CPU 2 instructions: 100000002 cycles: 74285795 heartbeat IPC: 1.39595 cumulative IPC: 1.34615 (Simulation time: 2 hr 18 min 34 sec) 
 Total Blocks : 262144 Invalid Blocks : 13
Heartbeat CPU 1 instructions: 100000002 cycles: 74286583 heartbeat IPC: 1.396 cumulative IPC: 1.34614 (Simulation time: 2 hr 18 min 34 sec) 
 Total Blocks : 262144 Invalid Blocks : 13
Heartbeat CPU 4 instructions: 100000002 cycles: 74286791 heartbeat IPC: 1.39595 cumulative IPC: 1.34613 (Simulation time: 2 hr 18 min 34 sec) 
 Total Blocks : 262144 Invalid Blocks : 13
Heartbeat CPU 7 instructions: 100000002 cycles: 74293693 heartbeat IPC: 1.39588 cumulative IPC: 1.34601 (Simulation time: 2 hr 18 min 34 sec) 
 Total Blocks : 262144 Invalid Blocks : 13
Heartbeat CPU 0 instructions: 100000002 cycles: 74294118 heartbeat IPC: 1.39585 cumulative IPC: 1.346 (Simulation time: 2 hr 18 min 35 sec) 
 Total Blocks : 262144 Invalid Blocks : 13
Heartbeat CPU 6 instructions: 100000002 cycles: 74294242 heartbeat IPC: 1.39587 cumulative IPC: 1.346 (Simulation time: 2 hr 18 min 35 sec) 
 Total Blocks : 262144 Invalid Blocks : 13
Heartbeat CPU 5 instructions: 100000002 cycles: 74294905 heartbeat IPC: 1.39581 cumulative IPC: 1.34599 (Simulation time: 2 hr 18 min 35 sec) 
 Total Blocks : 262144 Invalid Blocks : 13
Heartbeat CPU 3 instructions: 110000000 cycles: 81507052 heartbeat IPC: 1.38467 cumulative IPC: 1.34958 (Simulation time: 2 hr 30 min 57 sec) 
 Total Blocks : 262144 Invalid Blocks : 5
Heartbeat CPU 2 instructions: 110000000 cycles: 81508056 heartbeat IPC: 1.38461 cumulative IPC: 1.34956 (Simulation time: 2 hr 30 min 57 sec) 
 Total Blocks : 262144 Invalid Blocks : 5
Heartbeat CPU 1 instructions: 110000000 cycles: 81508708 heartbeat IPC: 1.38463 cumulative IPC: 1.34955 (Simulation time: 2 hr 30 min 57 sec) 
 Total Blocks : 262144 Invalid Blocks : 5
Heartbeat CPU 4 instructions: 110000000 cycles: 81509049 heartbeat IPC: 1.38461 cumulative IPC: 1.34954 (Simulation time: 2 hr 30 min 57 sec) 
 Total Blocks : 262144 Invalid Blocks : 5
Heartbeat CPU 7 instructions: 110000000 cycles: 81516213 heartbeat IPC: 1.38456 cumulative IPC: 1.34942 (Simulation time: 2 hr 30 min 58 sec) 
 Total Blocks : 262144 Invalid Blocks : 5
Heartbeat CPU 0 instructions: 110000000 cycles: 81517228 heartbeat IPC: 1.38444 cumulative IPC: 1.34941 (Simulation time: 2 hr 30 min 58 sec) 
 Total Blocks : 262144 Invalid Blocks : 5
Heartbeat CPU 6 instructions: 110000000 cycles: 81517498 heartbeat IPC: 1.38442 cumulative IPC: 1.3494 (Simulation time: 2 hr 30 min 58 sec) 
 Total Blocks : 262144 Invalid Blocks : 5
Heartbeat CPU 5 instructions: 110000000 cycles: 81517746 heartbeat IPC: 1.3845 cumulative IPC: 1.3494 (Simulation time: 2 hr 30 min 58 sec) 
 Total Blocks : 262144 Invalid Blocks : 5
Heartbeat CPU 3 instructions: 120000002 cycles: 89046811 heartbeat IPC: 1.3263 cumulative IPC: 1.34761 (Simulation time: 2 hr 42 min 50 sec) 
 Total Blocks : 262144 Invalid Blocks : 2
Heartbeat CPU 2 instructions: 120000002 cycles: 89048387 heartbeat IPC: 1.3262 cumulative IPC: 1.34758 (Simulation time: 2 hr 42 min 50 sec) 
 Total Blocks : 262144 Invalid Blocks : 2
Heartbeat CPU 1 instructions: 120000002 cycles: 89049167 heartbeat IPC: 1.32618 cumulative IPC: 1.34757 (Simulation time: 2 hr 42 min 50 sec) 
 Total Blocks : 262144 Invalid Blocks : 2
Heartbeat CPU 4 instructions: 120000002 cycles: 89049303 heartbeat IPC: 1.32622 cumulative IPC: 1.34757 (Simulation time: 2 hr 42 min 50 sec) 
 Total Blocks : 262144 Invalid Blocks : 2
Heartbeat CPU 7 instructions: 120000002 cycles: 89057082 heartbeat IPC: 1.32611 cumulative IPC: 1.34745 (Simulation time: 2 hr 42 min 51 sec) 
 Total Blocks : 262144 Invalid Blocks : 2
Heartbeat CPU 0 instructions: 120000002 cycles: 89058554 heartbeat IPC: 1.32603 cumulative IPC: 1.34743 (Simulation time: 2 hr 42 min 51 sec) 
 Total Blocks : 262144 Invalid Blocks : 2
Heartbeat CPU 6 instructions: 120000002 cycles: 89058752 heartbeat IPC: 1.32604 cumulative IPC: 1.34743 (Simulation time: 2 hr 42 min 51 sec) 
 Total Blocks : 262144 Invalid Blocks : 2
Heartbeat CPU 5 instructions: 120000002 cycles: 89058809 heartbeat IPC: 1.32607 cumulative IPC: 1.34742 (Simulation time: 2 hr 42 min 51 sec) 
 Total Blocks : 262144 Invalid Blocks : 2
Heartbeat CPU 3 instructions: 130000001 cycles: 96272451 heartbeat IPC: 1.38396 cumulative IPC: 1.35033 (Simulation time: 2 hr 54 min 9 sec) 
 Total Blocks : 262144 Invalid Blocks : 0
Heartbeat CPU 2 instructions: 130000001 cycles: 96274648 heartbeat IPC: 1.38384 cumulative IPC: 1.3503 (Simulation time: 2 hr 54 min 9 sec) 
 Total Blocks : 262144 Invalid Blocks : 0
Heartbeat CPU 1 instructions: 130000001 cycles: 96275513 heartbeat IPC: 1.38383 cumulative IPC: 1.35029 (Simulation time: 2 hr 54 min 10 sec) 
 Total Blocks : 262144 Invalid Blocks : 0
Heartbeat CPU 4 instructions: 130000001 cycles: 96275634 heartbeat IPC: 1.38383 cumulative IPC: 1.35029 (Simulation time: 2 hr 54 min 10 sec) 
 Total Blocks : 262144 Invalid Blocks : 0
Heartbeat CPU 7 instructions: 130000001 cycles: 96283497 heartbeat IPC: 1.38381 cumulative IPC: 1.35018 (Simulation time: 2 hr 54 min 10 sec) 
 Total Blocks : 262144 Invalid Blocks : 0
Heartbeat CPU 0 instructions: 130000001 cycles: 96285483 heartbeat IPC: 1.38371 cumulative IPC: 1.35015 (Simulation time: 2 hr 54 min 10 sec) 
 Total Blocks : 262144 Invalid Blocks : 0
Heartbeat CPU 6 instructions: 130000001 cycles: 96285624 heartbeat IPC: 1.38372 cumulative IPC: 1.35015 (Simulation time: 2 hr 54 min 10 sec) 
 Total Blocks : 262144 Invalid Blocks : 0
Heartbeat CPU 5 instructions: 130000001 cycles: 96286001 heartbeat IPC: 1.38366 cumulative IPC: 1.35014 (Simulation time: 2 hr 54 min 11 sec) 
 Total Blocks : 262144 Invalid Blocks : 0
Heartbeat CPU 3 instructions: 140000003 cycles: 102971897 heartbeat IPC: 1.49266 cumulative IPC: 1.35959 (Simulation time: 3 hr 6 min 4 sec) 
 Total Blocks : 262144 Invalid Blocks : 0
Heartbeat CPU 2 instructions: 140000003 cycles: 102974859 heartbeat IPC: 1.49249 cumulative IPC: 1.35956 (Simulation time: 3 hr 6 min 4 sec) 
 Total Blocks : 262144 Invalid Blocks : 0
Heartbeat CPU 1 instructions: 140000003 cycles: 102975432 heartbeat IPC: 1.49256 cumulative IPC: 1.35955 (Simulation time: 3 hr 6 min 4 sec) 
 Total Blocks : 262144 Invalid Blocks : 0
Heartbeat CPU 4 instructions: 140000003 cycles: 102975554 heartbeat IPC: 1.49256 cumulative IPC: 1.35955 (Simulation time: 3 hr 6 min 4 sec) 
 Total Blocks : 262144 Invalid Blocks : 0
Heartbeat CPU 7 instructions: 140000003 cycles: 102983570 heartbeat IPC: 1.49252 cumulative IPC: 1.35944 (Simulation time: 3 hr 6 min 5 sec) 
 Total Blocks : 262144 Invalid Blocks : 0
Heartbeat CPU 0 instructions: 140000003 cycles: 102985846 heartbeat IPC: 1.49246 cumulative IPC: 1.35941 (Simulation time: 3 hr 6 min 5 sec) 
 Total Blocks : 262144 Invalid Blocks : 0
Heartbeat CPU 6 instructions: 140000003 cycles: 102986209 heartbeat IPC: 1.49241 cumulative IPC: 1.35941 (Simulation time: 3 hr 6 min 5 sec) 
 Total Blocks : 262144 Invalid Blocks : 0
Heartbeat CPU 5 instructions: 140000003 cycles: 102986425 heartbeat IPC: 1.49244 cumulative IPC: 1.3594 (Simulation time: 3 hr 6 min 5 sec) 
 Total Blocks : 262144 Invalid Blocks : 0
Heartbeat CPU 3 instructions: 150000000 cycles: 110145437 heartbeat IPC: 1.39401 cumulative IPC: 1.36184 (Simulation time: 3 hr 17 min 39 sec) 
 Total Blocks : 262144 Invalid Blocks : 0
Heartbeat CPU 1 instructions: 150000000 cycles: 110149969 heartbeat IPC: 1.39382 cumulative IPC: 1.36178 (Simulation time: 3 hr 17 min 40 sec) 
 Total Blocks : 262144 Invalid Blocks : 0
Heartbeat CPU 2 instructions: 150000000 cycles: 110150040 heartbeat IPC: 1.39369 cumulative IPC: 1.36178 (Simulation time: 3 hr 17 min 40 sec) 
 Total Blocks : 262144 Invalid Blocks : 0
Heartbeat CPU 4 instructions: 150000000 cycles: 110150084 heartbeat IPC: 1.39382 cumulative IPC: 1.36178 (Simulation time: 3 hr 17 min 40 sec) 
 Total Blocks : 262144 Invalid Blocks : 0
Heartbeat CPU 7 instructions: 150000000 cycles: 110158271 heartbeat IPC: 1.39379 cumulative IPC: 1.36168 (Simulation time: 3 hr 17 min 40 sec) 
 Total Blocks : 262144 Invalid Blocks : 0
Heartbeat CPU 0 instructions: 150000000 cycles: 110161165 heartbeat IPC: 1.39367 cumulative IPC: 1.36164 (Simulation time: 3 hr 17 min 41 sec) 
 Total Blocks : 262144 Invalid Blocks : 0
Heartbeat CPU 6 instructions: 150000000 cycles: 110161885 heartbeat IPC: 1.3936 cumulative IPC: 1.36163 (Simulation time: 3 hr 17 min 41 sec) 
 Total Blocks : 262144 Invalid Blocks : 0
Heartbeat CPU 5 instructions: 150000000 cycles: 110161905 heartbeat IPC: 1.39363 cumulative IPC: 1.36163 (Simulation time: 3 hr 17 min 41 sec) 
 Total Blocks : 262144 Invalid Blocks : 0
Heartbeat CPU 3 instructions: 160000000 cycles: 117368644 heartbeat IPC: 1.38443 cumulative IPC: 1.36323 (Simulation time: 3 hr 29 min 50 sec) 
 Total Blocks : 262144 Invalid Blocks : 0
Heartbeat CPU 1 instructions: 160000000 cycles: 117374448 heartbeat IPC: 1.38418 cumulative IPC: 1.36316 (Simulation time: 3 hr 29 min 51 sec) 
 Total Blocks : 262144 Invalid Blocks : 0
Heartbeat CPU 4 instructions: 160000000 cycles: 117374795 heartbeat IPC: 1.38414 cumulative IPC: 1.36315 (Simulation time: 3 hr 29 min 51 sec) 
 Total Blocks : 262144 Invalid Blocks : 0
Heartbeat CPU 2 instructions: 160000000 cycles: 117375196 heartbeat IPC: 1.38405 cumulative IPC: 1.36315 (Simulation time: 3 hr 29 min 51 sec) 
 Total Blocks : 262144 Invalid Blocks : 0
Heartbeat CPU 7 instructions: 160000000 cycles: 117382794 heartbeat IPC: 1.38417 cumulative IPC: 1.36306 (Simulation time: 3 hr 29 min 52 sec) 
 Total Blocks : 262144 Invalid Blocks : 0
Heartbeat CPU 0 instructions: 160000000 cycles: 117386327 heartbeat IPC: 1.38405 cumulative IPC: 1.36302 (Simulation time: 3 hr 29 min 52 sec) 
 Total Blocks : 262144 Invalid Blocks : 0
Heartbeat CPU 5 instructions: 160000000 cycles: 117387251 heartbeat IPC: 1.38402 cumulative IPC: 1.36301 (Simulation time: 3 hr 29 min 52 sec) 
 Total Blocks : 262144 Invalid Blocks : 0
Heartbeat CPU 6 instructions: 160000000 cycles: 117387332 heartbeat IPC: 1.384 cumulative IPC: 1.36301 (Simulation time: 3 hr 29 min 52 sec) 
 Total Blocks : 262144 Invalid Blocks : 0
Heartbeat CPU 3 instructions: 170000003 cycles: 124353674 heartbeat IPC: 1.43163 cumulative IPC: 1.36707 (Simulation time: 3 hr 42 min 24 sec) 
 Total Blocks : 262144 Invalid Blocks : 0
Heartbeat CPU 1 instructions: 170000003 cycles: 124360019 heartbeat IPC: 1.43152 cumulative IPC: 1.367 (Simulation time: 3 hr 42 min 25 sec) 
 Total Blocks : 262144 Invalid Blocks : 0
Heartbeat CPU 4 instructions: 170000003 cycles: 124360562 heartbeat IPC: 1.43148 cumulative IPC: 1.36699 (Simulation time: 3 hr 42 min 25 sec) 
 Total Blocks : 262144 Invalid Blocks : 0
Heartbeat CPU 2 instructions: 170000003 cycles: 124360918 heartbeat IPC: 1.43149 cumulative IPC: 1.36699 (Simulation time: 3 hr 42 min 25 sec) 
 Total Blocks : 262144 Invalid Blocks : 0
Heartbeat CPU 7 instructions: 170000003 cycles: 124368517 heartbeat IPC: 1.43149 cumulative IPC: 1.36691 (Simulation time: 3 hr 42 min 25 sec) 
 Total Blocks : 262144 Invalid Blocks : 0
Heartbeat CPU 0 instructions: 170000003 cycles: 124372175 heartbeat IPC: 1.43147 cumulative IPC: 1.36687 (Simulation time: 3 hr 42 min 26 sec) 
 Total Blocks : 262144 Invalid Blocks : 0
Heartbeat CPU 5 instructions: 170000003 cycles: 124373006 heartbeat IPC: 1.43148 cumulative IPC: 1.36686 (Simulation time: 3 hr 42 min 26 sec) 
 Total Blocks : 262144 Invalid Blocks : 0
Heartbeat CPU 6 instructions: 170000003 cycles: 124373147 heartbeat IPC: 1.43147 cumulative IPC: 1.36685 (Simulation time: 3 hr 42 min 26 sec) 
 Total Blocks : 262144 Invalid Blocks : 0
Heartbeat CPU 3 instructions: 180000000 cycles: 131301753 heartbeat IPC: 1.43925 cumulative IPC: 1.37089 (Simulation time: 3 hr 54 min 45 sec) 
 Total Blocks : 262144 Invalid Blocks : 0
Heartbeat CPU 1 instructions: 180000000 cycles: 131307851 heartbeat IPC: 1.4393 cumulative IPC: 1.37082 (Simulation time: 3 hr 54 min 45 sec) 
 Total Blocks : 262144 Invalid Blocks : 0
Heartbeat CPU 4 instructions: 180000000 cycles: 131308493 heartbeat IPC: 1.43928 cumulative IPC: 1.37082 (Simulation time: 3 hr 54 min 45 sec) 
 Total Blocks : 262144 Invalid Blocks : 0
Heartbeat CPU 2 instructions: 180000000 cycles: 131308753 heartbeat IPC: 1.4393 cumulative IPC: 1.37081 (Simulation time: 3 hr 54 min 45 sec) 
 Total Blocks : 262144 Invalid Blocks : 0
Heartbeat CPU 7 instructions: 180000000 cycles: 131316384 heartbeat IPC: 1.43929 cumulative IPC: 1.37074 (Simulation time: 3 hr 54 min 46 sec) 
 Total Blocks : 262144 Invalid Blocks : 0
Heartbeat CPU 0 instructions: 180000000 cycles: 131320049 heartbeat IPC: 1.43929 cumulative IPC: 1.3707 (Simulation time: 3 hr 54 min 46 sec) 
 Total Blocks : 262144 Invalid Blocks : 0
Heartbeat CPU 5 instructions: 180000000 cycles: 131320756 heartbeat IPC: 1.43931 cumulative IPC: 1.37069 (Simulation time: 3 hr 54 min 46 sec) 
 Total Blocks : 262144 Invalid Blocks : 0
Heartbeat CPU 6 instructions: 180000000 cycles: 131320906 heartbeat IPC: 1.43931 cumulative IPC: 1.37069 (Simulation time: 3 hr 54 min 46 sec) 
 Total Blocks : 262144 Invalid Blocks : 0
Heartbeat CPU 3 instructions: 190000001 cycles: 138433399 heartbeat IPC: 1.4022 cumulative IPC: 1.3725 (Simulation time: 4 hr 5 min 27 sec) 
 Total Blocks : 262144 Invalid Blocks : 0
Heartbeat CPU 1 instructions: 190000001 cycles: 138439338 heartbeat IPC: 1.40223 cumulative IPC: 1.37244 (Simulation time: 4 hr 5 min 28 sec) 
 Total Blocks : 262144 Invalid Blocks : 0
Heartbeat CPU 4 instructions: 190000001 cycles: 138440404 heartbeat IPC: 1.40215 cumulative IPC: 1.37243 (Simulation time: 4 hr 5 min 28 sec) 
 Total Blocks : 262144 Invalid Blocks : 0
Heartbeat CPU 2 instructions: 190000001 cycles: 138440661 heartbeat IPC: 1.40215 cumulative IPC: 1.37243 (Simulation time: 4 hr 5 min 28 sec) 
 Total Blocks : 262144 Invalid Blocks : 0
Heartbeat CPU 7 instructions: 190000001 cycles: 138448160 heartbeat IPC: 1.40218 cumulative IPC: 1.37235 (Simulation time: 4 hr 5 min 29 sec) 
 Total Blocks : 262144 Invalid Blocks : 0
Heartbeat CPU 0 instructions: 190000001 cycles: 138451820 heartbeat IPC: 1.40218 cumulative IPC: 1.37232 (Simulation time: 4 hr 5 min 29 sec) 
 Total Blocks : 262144 Invalid Blocks : 0
Heartbeat CPU 5 instructions: 190000001 cycles: 138452523 heartbeat IPC: 1.40218 cumulative IPC: 1.37231 (Simulation time: 4 hr 5 min 29 sec) 
 Total Blocks : 262144 Invalid Blocks : 0
Heartbeat CPU 6 instructions: 190000001 cycles: 138452667 heartbeat IPC: 1.40218 cumulative IPC: 1.37231 (Simulation time: 4 hr 5 min 29 sec) 
 Total Blocks : 262144 Invalid Blocks : 0
Heartbeat CPU 3 instructions: 200000002 cycles: 145690513 heartbeat IPC: 1.37796 cumulative IPC: 1.37277 (Simulation time: 4 hr 16 min 34 sec) 
 Total Blocks : 262144 Invalid Blocks : 0
Heartbeat CPU 1 instructions: 200000002 cycles: 145696362 heartbeat IPC: 1.37798 cumulative IPC: 1.37272 (Simulation time: 4 hr 16 min 34 sec) 
 Total Blocks : 262144 Invalid Blocks : 0
Heartbeat CPU 4 instructions: 200000002 cycles: 145697727 heartbeat IPC: 1.37792 cumulative IPC: 1.3727 (Simulation time: 4 hr 16 min 34 sec) 
 Total Blocks : 262144 Invalid Blocks : 0
Heartbeat CPU 2 instructions: 200000002 cycles: 145697948 heartbeat IPC: 1.37793 cumulative IPC: 1.3727 (Simulation time: 4 hr 16 min 34 sec) 
 Total Blocks : 262144 Invalid Blocks : 0
Heartbeat CPU 7 instructions: 200000002 cycles: 145705537 heartbeat IPC: 1.37791 cumulative IPC: 1.37263 (Simulation time: 4 hr 16 min 35 sec) 
 Total Blocks : 262144 Invalid Blocks : 0
Heartbeat CPU 0 instructions: 200000002 cycles: 145708986 heartbeat IPC: 1.37795 cumulative IPC: 1.3726 (Simulation time: 4 hr 16 min 35 sec) 
 Total Blocks : 262144 Invalid Blocks : 0
Heartbeat CPU 5 instructions: 200000002 cycles: 145709898 heartbeat IPC: 1.37791 cumulative IPC: 1.37259 (Simulation time: 4 hr 16 min 35 sec) 
 Total Blocks : 262144 Invalid Blocks : 0
Heartbeat CPU 6 instructions: 200000002 cycles: 145709941 heartbeat IPC: 1.37793 cumulative IPC: 1.37259 (Simulation time: 4 hr 16 min 35 sec) 
 Total Blocks : 262144 Invalid Blocks : 0

Warmup complete CPU 0 instructions: 200001247 cycles: 145709941 (Simulation time: 4 hr 16 min 35 sec) 
Warmup complete CPU 1 instructions: 200017675 cycles: 145709941 (Simulation time: 4 hr 16 min 35 sec) 
Warmup complete CPU 2 instructions: 200015808 cycles: 145709941 (Simulation time: 4 hr 16 min 35 sec) 
Warmup complete CPU 3 instructions: 200025182 cycles: 145709941 (Simulation time: 4 hr 16 min 35 sec) 
Warmup complete CPU 4 instructions: 200016091 cycles: 145709941 (Simulation time: 4 hr 16 min 35 sec) 
Warmup complete CPU 5 instructions: 200000093 cycles: 145709941 (Simulation time: 4 hr 16 min 35 sec) 
Warmup complete CPU 6 instructions: 200000002 cycles: 145709941 (Simulation time: 4 hr 16 min 35 sec) 
Warmup complete CPU 7 instructions: 200005706 cycles: 145709940 (Simulation time: 4 hr 16 min 35 sec) 

Heartbeat CPU 4 instructions: 210000003 cycles: 161178313 heartbeat IPC: 0.64597 cumulative IPC: 0.64544 (Simulation time: 4 hr 35 min 31 sec) 
 Total Blocks : 262144 Invalid Blocks : 0
Heartbeat CPU 3 instructions: 210000003 cycles: 161192409 heartbeat IPC: 0.645082 cumulative IPC: 0.644266 (Simulation time: 4 hr 35 min 32 sec) 
 Total Blocks : 262144 Invalid Blocks : 0
Heartbeat CPU 1 instructions: 210000003 cycles: 161198681 heartbeat IPC: 0.645065 cumulative IPC: 0.644489 (Simulation time: 4 hr 35 min 32 sec) 
 Total Blocks : 262144 Invalid Blocks : 0
Heartbeat CPU 5 instructions: 210000003 cycles: 161208214 heartbeat IPC: 0.645231 cumulative IPC: 0.645227 (Simulation time: 4 hr 35 min 33 sec) 
 Total Blocks : 262144 Invalid Blocks : 0
Heartbeat CPU 0 instructions: 210000003 cycles: 161208377 heartbeat IPC: 0.645187 cumulative IPC: 0.645146 (Simulation time: 4 hr 35 min 33 sec) 
 Total Blocks : 262144 Invalid Blocks : 0
Heartbeat CPU 7 instructions: 210000003 cycles: 161208518 heartbeat IPC: 0.645037 cumulative IPC: 0.644853 (Simulation time: 4 hr 35 min 33 sec) 
 Total Blocks : 262144 Invalid Blocks : 0
Heartbeat CPU 2 instructions: 210000003 cycles: 161215010 heartbeat IPC: 0.644452 cumulative IPC: 0.643931 (Simulation time: 4 hr 35 min 33 sec) 
 Total Blocks : 262144 Invalid Blocks : 0
Heartbeat CPU 6 instructions: 210000003 cycles: 161229288 heartbeat IPC: 0.644357 cumulative IPC: 0.644357 (Simulation time: 4 hr 35 min 35 sec) 
 Total Blocks : 262144 Invalid Blocks : 0
Heartbeat CPU 4 instructions: 220000000 cycles: 176824095 heartbeat IPC: 0.63915 cumulative IPC: 0.642277 (Simulation time: 4 hr 54 min 4 sec) 
 Total Blocks : 262144 Invalid Blocks : 0
Heartbeat CPU 0 instructions: 220000000 cycles: 176853526 heartbeat IPC: 0.639176 cumulative IPC: 0.642147 (Simulation time: 4 hr 54 min 6 sec) 
 Total Blocks : 262144 Invalid Blocks : 0
Heartbeat CPU 5 instructions: 220000000 cycles: 176864617 heartbeat IPC: 0.638716 cumulative IPC: 0.641955 (Simulation time: 4 hr 54 min 7 sec) 
 Total Blocks : 262144 Invalid Blocks : 0
Heartbeat CPU 2 instructions: 220000000 cycles: 176864668 heartbeat IPC: 0.638991 cumulative IPC: 0.64145 (Simulation time: 4 hr 54 min 7 sec) 
 Total Blocks : 262144 Invalid Blocks : 0
Heartbeat CPU 3 instructions: 220000000 cycles: 176876987 heartbeat IPC: 0.637569 cumulative IPC: 0.640895 (Simulation time: 4 hr 54 min 7 sec) 
 Total Blocks : 262144 Invalid Blocks : 0
Heartbeat CPU 1 instructions: 220000000 cycles: 176877584 heartbeat IPC: 0.6378 cumulative IPC: 0.641124 (Simulation time: 4 hr 54 min 7 sec) 
 Total Blocks : 262144 Invalid Blocks : 0
Heartbeat CPU 7 instructions: 220000000 cycles: 176901661 heartbeat IPC: 0.637221 cumulative IPC: 0.641013 (Simulation time: 4 hr 54 min 9 sec) 
 Total Blocks : 262144 Invalid Blocks : 0
Heartbeat CPU 6 instructions: 220000000 cycles: 176971233 heartbeat IPC: 0.635245 cumulative IPC: 0.639769 (Simulation time: 4 hr 54 min 14 sec) 
 Total Blocks : 262144 Invalid Blocks : 0
Heartbeat CPU 4 instructions: 230000001 cycles: 192811702 heartbeat IPC: 0.625485 cumulative IPC: 0.636577 (Simulation time: 5 hr 13 min 15 sec) 
 Total Blocks : 262144 Invalid Blocks : 0
Heartbeat CPU 0 instructions: 230000001 cycles: 192816559 heartbeat IPC: 0.626447 cumulative IPC: 0.636827 (Simulation time: 5 hr 13 min 15 sec) 
 Total Blocks : 262144 Invalid Blocks : 0
Heartbeat CPU 2 instructions: 230000001 cycles: 192837179 heartbeat IPC: 0.626076 cumulative IPC: 0.636239 (Simulation time: 5 hr 13 min 17 sec) 
 Total Blocks : 262144 Invalid Blocks : 0
Heartbeat CPU 5 instructions: 230000001 cycles: 192840442 heartbeat IPC: 0.625946 cumulative IPC: 0.636528 (Simulation time: 5 hr 13 min 17 sec) 
 Total Blocks : 262144 Invalid Blocks : 0
Heartbeat CPU 3 instructions: 230000001 cycles: 192869464 heartbeat IPC: 0.625294 cumulative IPC: 0.635605 (Simulation time: 5 hr 13 min 20 sec) 
 Total Blocks : 262144 Invalid Blocks : 0
Heartbeat CPU 1 instructions: 230000001 cycles: 192883168 heartbeat IPC: 0.624782 cumulative IPC: 0.635579 (Simulation time: 5 hr 13 min 21 sec) 
 Total Blocks : 262144 Invalid Blocks : 0
Heartbeat CPU 7 instructions: 230000001 cycles: 192925005 heartbeat IPC: 0.62409 cumulative IPC: 0.63527 (Simulation time: 5 hr 13 min 23 sec) 
 Total Blocks : 262144 Invalid Blocks : 0
Heartbeat CPU 6 instructions: 230000001 cycles: 193071104 heartbeat IPC: 0.621123 cumulative IPC: 0.63343 (Simulation time: 5 hr 13 min 32 sec) 
 Total Blocks : 262144 Invalid Blocks : 0
Heartbeat CPU 0 instructions: 240000001 cycles: 208687318 heartbeat IPC: 0.63009 cumulative IPC: 0.635129 (Simulation time: 5 hr 33 min 17 sec) 
 Total Blocks : 262144 Invalid Blocks : 0
Heartbeat CPU 4 instructions: 240000001 cycles: 208687649 heartbeat IPC: 0.629884 cumulative IPC: 0.63489 (Simulation time: 5 hr 33 min 17 sec) 
 Total Blocks : 262144 Invalid Blocks : 0
Heartbeat CPU 2 instructions: 240000001 cycles: 208727030 heartbeat IPC: 0.629333 cumulative IPC: 0.634498 (Simulation time: 5 hr 33 min 20 sec) 
 Total Blocks : 262144 Invalid Blocks : 0
Heartbeat CPU 5 instructions: 240000001 cycles: 208757785 heartbeat IPC: 0.628246 cumulative IPC: 0.634437 (Simulation time: 5 hr 33 min 21 sec) 
 Total Blocks : 262144 Invalid Blocks : 0
Heartbeat CPU 3 instructions: 240000001 cycles: 208774076 heartbeat IPC: 0.628748 cumulative IPC: 0.633876 (Simulation time: 5 hr 33 min 23 sec) 
 Total Blocks : 262144 Invalid Blocks : 0
Heartbeat CPU 1 instructions: 240000001 cycles: 208786910 heartbeat IPC: 0.628783 cumulative IPC: 0.633866 (Simulation time: 5 hr 33 min 24 sec) 
 Total Blocks : 262144 Invalid Blocks : 0
Heartbeat CPU 7 instructions: 240000001 cycles: 208839617 heartbeat IPC: 0.628353 cumulative IPC: 0.633526 (Simulation time: 5 hr 33 min 28 sec) 
 Total Blocks : 262144 Invalid Blocks : 0
Heartbeat CPU 6 instructions: 240000001 cycles: 209073832 heartbeat IPC: 0.624893 cumulative IPC: 0.631274 (Simulation time: 5 hr 33 min 45 sec) 
 Total Blocks : 262144 Invalid Blocks : 0
Heartbeat CPU 0 instructions: 250000002 cycles: 224504922 heartbeat IPC: 0.632207 cumulative IPC: 0.634542 (Simulation time: 5 hr 53 min 1 sec) 
 Total Blocks : 262144 Invalid Blocks : 0
Heartbeat CPU 4 instructions: 250000002 cycles: 224506932 heartbeat IPC: 0.63214 cumulative IPC: 0.634338 (Simulation time: 5 hr 53 min 1 sec) 
 Total Blocks : 262144 Invalid Blocks : 0
Heartbeat CPU 2 instructions: 250000002 cycles: 224557463 heartbeat IPC: 0.631695 cumulative IPC: 0.633935 (Simulation time: 5 hr 53 min 4 sec) 
 Total Blocks : 262144 Invalid Blocks : 0
Heartbeat CPU 3 instructions: 250000002 cycles: 224600587 heartbeat IPC: 0.631851 cumulative IPC: 0.63347 (Simulation time: 5 hr 53 min 7 sec) 
 Total Blocks : 262144 Invalid Blocks : 0
Heartbeat CPU 5 instructions: 250000002 cycles: 224627445 heartbeat IPC: 0.630133 cumulative IPC: 0.633572 (Simulation time: 5 hr 53 min 10 sec) 
 Total Blocks : 262144 Invalid Blocks : 0
Heartbeat CPU 1 instructions: 250000002 cycles: 224654907 heartbeat IPC: 0.630199 cumulative IPC: 0.633129 (Simulation time: 5 hr 53 min 12 sec) 
 Total Blocks : 262144 Invalid Blocks : 0
Heartbeat CPU 7 instructions: 250000002 cycles: 224690467 heartbeat IPC: 0.630881 cumulative IPC: 0.632995 (Simulation time: 5 hr 53 min 15 sec) 
 Total Blocks : 262144 Invalid Blocks : 0
Heartbeat CPU 6 instructions: 250000002 cycles: 225043883 heartbeat IPC: 0.626172 cumulative IPC: 0.630247 (Simulation time: 5 hr 53 min 41 sec) 
 Total Blocks : 262144 Invalid Blocks : 0
Heartbeat CPU 4 instructions: 260000001 cycles: 240335431 heartbeat IPC: 0.631772 cumulative IPC: 0.633909 (Simulation time: 6 hr 11 min 6 sec) 
 Total Blocks : 262144 Invalid Blocks : 0
Heartbeat CPU 0 instructions: 260000001 cycles: 240335520 heartbeat IPC: 0.631688 cumulative IPC: 0.634065 (Simulation time: 6 hr 11 min 6 sec) 
 Total Blocks : 262144 Invalid Blocks : 0
Heartbeat CPU 2 instructions: 260000001 cycles: 240401939 heartbeat IPC: 0.631135 cumulative IPC: 0.633466 (Simulation time: 6 hr 11 min 10 sec) 
 Total Blocks : 262144 Invalid Blocks : 0
Heartbeat CPU 3 instructions: 260000001 cycles: 240425037 heartbeat IPC: 0.631933 cumulative IPC: 0.633213 (Simulation time: 6 hr 11 min 13 sec) 
 Total Blocks : 262144 Invalid Blocks : 0
Heartbeat CPU 5 instructions: 260000001 cycles: 240492588 heartbeat IPC: 0.630313 cumulative IPC: 0.633026 (Simulation time: 6 hr 11 min 18 sec) 
 Total Blocks : 262144 Invalid Blocks : 0
Heartbeat CPU 1 instructions: 260000001 cycles: 240515589 heartbeat IPC: 0.63049 cumulative IPC: 0.632687 (Simulation time: 6 hr 11 min 20 sec) 
 Total Blocks : 262144 Invalid Blocks : 0
Heartbeat CPU 7 instructions: 260000001 cycles: 240559634 heartbeat IPC: 0.630153 cumulative IPC: 0.63252 (Simulation time: 6 hr 11 min 24 sec) 
 Total Blocks : 262144 Invalid Blocks : 0
Heartbeat CPU 6 instructions: 260000001 cycles: 241041874 heartbeat IPC: 0.625078 cumulative IPC: 0.62938 (Simulation time: 6 hr 11 min 58 sec) 
 Total Blocks : 262144 Invalid Blocks : 0
Heartbeat CPU 0 instructions: 270000003 cycles: 256467645 heartbeat IPC: 0.619881 cumulative IPC: 0.631999 (Simulation time: 6 hr 29 min 41 sec) 
 Total Blocks : 262144 Invalid Blocks : 0
Heartbeat CPU 4 instructions: 270000003 cycles: 256472259 heartbeat IPC: 0.619701 cumulative IPC: 0.631839 (Simulation time: 6 hr 29 min 41 sec) 
 Total Blocks : 262144 Invalid Blocks : 0
Heartbeat CPU 2 instructions: 270000003 cycles: 256567833 heartbeat IPC: 0.618586 cumulative IPC: 0.631296 (Simulation time: 6 hr 29 min 47 sec) 
 Total Blocks : 262144 Invalid Blocks : 0
Heartbeat CPU 3 instructions: 270000003 cycles: 256586403 heartbeat IPC: 0.61876 cumulative IPC: 0.631106 (Simulation time: 6 hr 29 min 49 sec) 
 Total Blocks : 262144 Invalid Blocks : 0
Heartbeat CPU 5 instructions: 270000003 cycles: 256685649 heartbeat IPC: 0.617549 cumulative IPC: 0.630768 (Simulation time: 6 hr 29 min 55 sec) 
 Total Blocks : 262144 Invalid Blocks : 0
Heartbeat CPU 1 instructions: 270000003 cycles: 256693362 heartbeat IPC: 0.618132 cumulative IPC: 0.630566 (Simulation time: 6 hr 29 min 56 sec) 
 Total Blocks : 262144 Invalid Blocks : 0
Heartbeat CPU 7 instructions: 270000003 cycles: 256729675 heartbeat IPC: 0.618428 cumulative IPC: 0.630467 (Simulation time: 6 hr 29 min 58 sec) 
 Total Blocks : 262144 Invalid Blocks : 0
Heartbeat CPU 6 instructions: 270000003 cycles: 257295507 heartbeat IPC: 0.615247 cumulative IPC: 0.627321 (Simulation time: 6 hr 30 min 37 sec) 
 Total Blocks : 262144 Invalid Blocks : 0
Heartbeat CPU 0 instructions: 280000003 cycles: 272594729 heartbeat IPC: 0.620075 cumulative IPC: 0.630483 (Simulation time: 6 hr 47 min 52 sec) 
 Total Blocks : 262144 Invalid Blocks : 0
Heartbeat CPU 4 instructions: 280000003 cycles: 272595109 heartbeat IPC: 0.620238 cumulative IPC: 0.630365 (Simulation time: 6 hr 47 min 52 sec) 
 Total Blocks : 262144 Invalid Blocks : 0
Heartbeat CPU 2 instructions: 280000003 cycles: 272712706 heartbeat IPC: 0.619392 cumulative IPC: 0.629783 (Simulation time: 6 hr 48 min 1 sec) 
 Total Blocks : 262144 Invalid Blocks : 0
Heartbeat CPU 3 instructions: 280000003 cycles: 272730423 heartbeat IPC: 0.619424 cumulative IPC: 0.629621 (Simulation time: 6 hr 48 min 2 sec) 
 Total Blocks : 262144 Invalid Blocks : 0
Heartbeat CPU 1 instructions: 280000003 cycles: 272842799 heartbeat IPC: 0.619217 cumulative IPC: 0.629124 (Simulation time: 6 hr 48 min 10 sec) 
 Total Blocks : 262144 Invalid Blocks : 0
Heartbeat CPU 5 instructions: 280000003 cycles: 272854582 heartbeat IPC: 0.61847 cumulative IPC: 0.629204 (Simulation time: 6 hr 48 min 10 sec) 
 Total Blocks : 262144 Invalid Blocks : 0
Heartbeat CPU 7 instructions: 280000003 cycles: 272905152 heartbeat IPC: 0.61822 cumulative IPC: 0.62891 (Simulation time: 6 hr 48 min 13 sec) 
 Total Blocks : 262144 Invalid Blocks : 0
Heartbeat CPU 6 instructions: 280000003 cycles: 273551277 heartbeat IPC: 0.615166 cumulative IPC: 0.625776 (Simulation time: 6 hr 48 min 56 sec) 
 Total Blocks : 262144 Invalid Blocks : 0
Heartbeat CPU 4 instructions: 290000000 cycles: 288908488 heartbeat IPC: 0.612994 cumulative IPC: 0.628386 (Simulation time: 7 hr 6 min 32 sec) 
 Total Blocks : 262144 Invalid Blocks : 0
Heartbeat CPU 0 instructions: 290000000 cycles: 288911555 heartbeat IPC: 0.612864 cumulative IPC: 0.628476 (Simulation time: 7 hr 6 min 32 sec) 
 Total Blocks : 262144 Invalid Blocks : 0
Heartbeat CPU 2 instructions: 290000000 cycles: 289043633 heartbeat IPC: 0.612335 cumulative IPC: 0.627795 (Simulation time: 7 hr 6 min 41 sec) 
 Total Blocks : 262144 Invalid Blocks : 0
Heartbeat CPU 3 instructions: 290000000 cycles: 289071511 heartbeat IPC: 0.611954 cumulative IPC: 0.627608 (Simulation time: 7 hr 6 min 43 sec) 
 Total Blocks : 262144 Invalid Blocks : 0
Heartbeat CPU 1 instructions: 290000000 cycles: 289181427 heartbeat IPC: 0.612046 cumulative IPC: 0.627179 (Simulation time: 7 hr 6 min 50 sec) 
 Total Blocks : 262144 Invalid Blocks : 0
Heartbeat CPU 5 instructions: 290000000 cycles: 289217584 heartbeat IPC: 0.611135 cumulative IPC: 0.627144 (Simulation time: 7 hr 6 min 53 sec) 
 Total Blocks : 262144 Invalid Blocks : 0
Heartbeat CPU 7 instructions: 290000000 cycles: 289267054 heartbeat IPC: 0.611176 cumulative IPC: 0.626888 (Simulation time: 7 hr 6 min 56 sec) 
 Total Blocks : 262144 Invalid Blocks : 0
Heartbeat CPU 6 instructions: 290000000 cycles: 290016489 heartbeat IPC: 0.607341 cumulative IPC: 0.623672 (Simulation time: 7 hr 7 min 49 sec) 
 Total Blocks : 262144 Invalid Blocks : 0
Heartbeat CPU 0 instructions: 300000001 cycles: 306112676 heartbeat IPC: 0.581358 cumulative IPC: 0.623423 (Simulation time: 7 hr 26 min 29 sec) 
 Total Blocks : 262144 Invalid Blocks : 0
Heartbeat CPU 4 instructions: 300000001 cycles: 306118738 heartbeat IPC: 0.581049 cumulative IPC: 0.623307 (Simulation time: 7 hr 26 min 29 sec) 
 Total Blocks : 262144 Invalid Blocks : 0
Heartbeat CPU 2 instructions: 300000001 cycles: 306249714 heartbeat IPC: 0.58119 cumulative IPC: 0.6228 (Simulation time: 7 hr 26 min 39 sec) 
 Total Blocks : 262144 Invalid Blocks : 0
Heartbeat CPU 3 instructions: 300000001 cycles: 306261601 heartbeat IPC: 0.581731 cumulative IPC: 0.622696 (Simulation time: 7 hr 26 min 40 sec) 
 Total Blocks : 262144 Invalid Blocks : 0
Heartbeat CPU 1 instructions: 300000001 cycles: 306385704 heartbeat IPC: 0.581251 cumulative IPC: 0.622261 (Simulation time: 7 hr 26 min 48 sec) 
 Total Blocks : 262144 Invalid Blocks : 0
Heartbeat CPU 5 instructions: 300000001 cycles: 306436732 heartbeat IPC: 0.580749 cumulative IPC: 0.622173 (Simulation time: 7 hr 26 min 53 sec) 
 Total Blocks : 262144 Invalid Blocks : 0
Heartbeat CPU 7 instructions: 300000001 cycles: 306496807 heartbeat IPC: 0.580391 cumulative IPC: 0.621906 (Simulation time: 7 hr 26 min 57 sec) 
 Total Blocks : 262144 Invalid Blocks : 0
Heartbeat CPU 6 instructions: 300000001 cycles: 307270760 heartbeat IPC: 0.579567 cumulative IPC: 0.618962 (Simulation time: 7 hr 27 min 52 sec) 
 Total Blocks : 262144 Invalid Blocks : 0
Heartbeat CPU 0 instructions: 310000001 cycles: 322688287 heartbeat IPC: 0.603296 cumulative IPC: 0.621538 (Simulation time: 7 hr 45 min 30 sec) 
 Total Blocks : 262144 Invalid Blocks : 0
Heartbeat CPU 4 instructions: 310000001 cycles: 322688567 heartbeat IPC: 0.603507 cumulative IPC: 0.621453 (Simulation time: 7 hr 45 min 30 sec) 
 Total Blocks : 262144 Invalid Blocks : 0
Heartbeat CPU 3 instructions: 310000001 cycles: 322825803 heartbeat IPC: 0.603712 cumulative IPC: 0.62092 (Simulation time: 7 hr 45 min 39 sec) 
 Total Blocks : 262144 Invalid Blocks : 0
Heartbeat CPU 2 instructions: 310000001 cycles: 322831279 heartbeat IPC: 0.603079 cumulative IPC: 0.620954 (Simulation time: 7 hr 45 min 39 sec) 
 Total Blocks : 262144 Invalid Blocks : 0
Heartbeat CPU 1 instructions: 310000001 cycles: 322961833 heartbeat IPC: 0.603277 cumulative IPC: 0.620486 (Simulation time: 7 hr 45 min 49 sec) 
 Total Blocks : 262144 Invalid Blocks : 0
Heartbeat CPU 5 instructions: 310000001 cycles: 323007573 heartbeat IPC: 0.60347 cumulative IPC: 0.620425 (Simulation time: 7 hr 45 min 51 sec) 
 Total Blocks : 262144 Invalid Blocks : 0
Heartbeat CPU 7 instructions: 310000001 cycles: 323115025 heartbeat IPC: 0.601749 cumulative IPC: 0.620018 (Simulation time: 7 hr 45 min 58 sec) 
 Total Blocks : 262144 Invalid Blocks : 0
Heartbeat CPU 6 instructions: 310000001 cycles: 323838566 heartbeat IPC: 0.60358 cumulative IPC: 0.617531 (Simulation time: 7 hr 46 min 46 sec) 
 Total Blocks : 262144 Invalid Blocks : 0
Heartbeat CPU 4 instructions: 320000002 cycles: 337406762 heartbeat IPC: 0.679431 cumulative IPC: 0.625905 (Simulation time: 8 hr 2 min 58 sec) 
 Total Blocks : 262144 Invalid Blocks : 0
Heartbeat CPU 0 instructions: 320000002 cycles: 337406864 heartbeat IPC: 0.679414 cumulative IPC: 0.625982 (Simulation time: 8 hr 2 min 58 sec) 
 Total Blocks : 262144 Invalid Blocks : 0
Heartbeat CPU 3 instructions: 320000002 cycles: 337565154 heartbeat IPC: 0.678456 cumulative IPC: 0.62534 (Simulation time: 8 hr 3 min 10 sec) 
 Total Blocks : 262144 Invalid Blocks : 0
Heartbeat CPU 2 instructions: 320000002 cycles: 337573444 heartbeat IPC: 0.678326 cumulative IPC: 0.625362 (Simulation time: 8 hr 3 min 10 sec) 
 Total Blocks : 262144 Invalid Blocks : 0
Heartbeat CPU 1 instructions: 320000002 cycles: 337715297 heartbeat IPC: 0.677807 cumulative IPC: 0.624891 (Simulation time: 8 hr 3 min 21 sec) 
 Total Blocks : 262144 Invalid Blocks : 0
Heartbeat CPU 5 instructions: 320000002 cycles: 337743090 heartbeat IPC: 0.678632 cumulative IPC: 0.624892 (Simulation time: 8 hr 3 min 23 sec) 
 Total Blocks : 262144 Invalid Blocks : 0
Heartbeat CPU 7 instructions: 320000002 cycles: 337897716 heartbeat IPC: 0.676467 cumulative IPC: 0.62436 (Simulation time: 8 hr 3 min 35 sec) 
 Total Blocks : 262144 Invalid Blocks : 0
Heartbeat CPU 6 instructions: 320000002 cycles: 338596985 heartbeat IPC: 0.677579 cumulative IPC: 0.622126 (Simulation time: 8 hr 4 min 25 sec) 
 Total Blocks : 262144 Invalid Blocks : 0
Heartbeat CPU 0 instructions: 330000000 cycles: 351549653 heartbeat IPC: 0.707074 cumulative IPC: 0.631553 (Simulation time: 8 hr 20 min 15 sec) 
 Total Blocks : 262144 Invalid Blocks : 0
Heartbeat CPU 4 instructions: 330000000 cycles: 351553052 heartbeat IPC: 0.706899 cumulative IPC: 0.631471 (Simulation time: 8 hr 20 min 15 sec) 
 Total Blocks : 262144 Invalid Blocks : 0
Heartbeat CPU 3 instructions: 330000000 cycles: 351726257 heartbeat IPC: 0.70616 cumulative IPC: 0.630896 (Simulation time: 8 hr 20 min 28 sec) 
 Total Blocks : 262144 Invalid Blocks : 0
Heartbeat CPU 2 instructions: 330000000 cycles: 351726558 heartbeat IPC: 0.706558 cumulative IPC: 0.63094 (Simulation time: 8 hr 20 min 28 sec) 
 Total Blocks : 262144 Invalid Blocks : 0
Heartbeat CPU 1 instructions: 330000000 cycles: 351886390 heartbeat IPC: 0.705662 cumulative IPC: 0.630442 (Simulation time: 8 hr 20 min 41 sec) 
 Total Blocks : 262144 Invalid Blocks : 0
Heartbeat CPU 5 instructions: 330000000 cycles: 351888616 heartbeat IPC: 0.706937 cumulative IPC: 0.630521 (Simulation time: 8 hr 20 min 41 sec) 
 Total Blocks : 262144 Invalid Blocks : 0
Heartbeat CPU 7 instructions: 330000000 cycles: 352126968 heartbeat IPC: 0.702778 cumulative IPC: 0.629765 (Simulation time: 8 hr 20 min 59 sec) 
 Total Blocks : 262144 Invalid Blocks : 0
Heartbeat CPU 6 instructions: 330000000 cycles: 352777367 heartbeat IPC: 0.705199 cumulative IPC: 0.627815 (Simulation time: 8 hr 21 min 49 sec) 
 Total Blocks : 262144 Invalid Blocks : 0
Heartbeat CPU 0 instructions: 340000000 cycles: 380293037 heartbeat IPC: 0.347906 cumulative IPC: 0.596798 (Simulation time: 9 hr 50 min 8 sec) 
 Total Blocks : 262144 Invalid Blocks : 0
Heartbeat CPU 4 instructions: 340000000 cycles: 380303126 heartbeat IPC: 0.347825 cumulative IPC: 0.596709 (Simulation time: 9 hr 50 min 8 sec) 
 Total Blocks : 262144 Invalid Blocks : 0
Heartbeat CPU 2 instructions: 340000000 cycles: 380555500 heartbeat IPC: 0.346874 cumulative IPC: 0.596069 (Simulation time: 9 hr 50 min 27 sec) 
 Total Blocks : 262144 Invalid Blocks : 0
Heartbeat CPU 3 instructions: 340000000 cycles: 380581177 heartbeat IPC: 0.346561 cumulative IPC: 0.595964 (Simulation time: 9 hr 50 min 29 sec) 
 Total Blocks : 262144 Invalid Blocks : 0
Heartbeat CPU 5 instructions: 340000000 cycles: 380655065 heartbeat IPC: 0.347627 cumulative IPC: 0.595883 (Simulation time: 9 hr 50 min 36 sec) 
 Total Blocks : 262144 Invalid Blocks : 0
Heartbeat CPU 1 instructions: 340000000 cycles: 380703646 heartbeat IPC: 0.347014 cumulative IPC: 0.595685 (Simulation time: 9 hr 50 min 39 sec) 
 Total Blocks : 262144 Invalid Blocks : 0
Heartbeat CPU 7 instructions: 340000000 cycles: 380843099 heartbeat IPC: 0.348236 cumulative IPC: 0.595383 (Simulation time: 9 hr 50 min 48 sec) 
 Total Blocks : 262144 Invalid Blocks : 0
Heartbeat CPU 6 instructions: 340000000 cycles: 380955910 heartbeat IPC: 0.35488 cumulative IPC: 0.595122 (Simulation time: 9 hr 50 min 57 sec) 
 Total Blocks : 262144 Invalid Blocks : 0
Heartbeat CPU 0 instructions: 350000000 cycles: 395123021 heartbeat IPC: 0.67431 cumulative IPC: 0.601407 (Simulation time: 10 hr 7 min 30 sec) 
 Total Blocks : 262144 Invalid Blocks : 0
Heartbeat CPU 4 instructions: 350000000 cycles: 395146475 heartbeat IPC: 0.673702 cumulative IPC: 0.601291 (Simulation time: 10 hr 7 min 31 sec) 
 Total Blocks : 262144 Invalid Blocks : 0
Heartbeat CPU 2 instructions: 350000000 cycles: 395409575 heartbeat IPC: 0.673216 cumulative IPC: 0.600658 (Simulation time: 10 hr 7 min 51 sec) 
 Total Blocks : 262144 Invalid Blocks : 0
Heartbeat CPU 3 instructions: 350000000 cycles: 395450466 heartbeat IPC: 0.672527 cumulative IPC: 0.600523 (Simulation time: 10 hr 7 min 54 sec) 
 Total Blocks : 262144 Invalid Blocks : 0
Heartbeat CPU 5 instructions: 350000000 cycles: 395484234 heartbeat IPC: 0.674347 cumulative IPC: 0.600542 (Simulation time: 10 hr 7 min 57 sec) 
 Total Blocks : 262144 Invalid Blocks : 0
Heartbeat CPU 1 instructions: 350000000 cycles: 395560954 heartbeat IPC: 0.673069 cumulative IPC: 0.600287 (Simulation time: 10 hr 8 min 2 sec) 
 Total Blocks : 262144 Invalid Blocks : 0
Heartbeat CPU 7 instructions: 350000000 cycles: 395776991 heartbeat IPC: 0.669618 cumulative IPC: 0.599816 (Simulation time: 10 hr 8 min 17 sec) 
 Total Blocks : 262144 Invalid Blocks : 0
Heartbeat CPU 6 instructions: 350000000 cycles: 395838233 heartbeat IPC: 0.671938 cumulative IPC: 0.599692 (Simulation time: 10 hr 8 min 22 sec) 
 Total Blocks : 262144 Invalid Blocks : 0
Heartbeat CPU 0 instructions: 360000000 cycles: 411549845 heartbeat IPC: 0.60876 cumulative IPC: 0.601861 (Simulation time: 10 hr 26 min 23 sec) 
 Total Blocks : 262144 Invalid Blocks : 0
Heartbeat CPU 4 instructions: 360000000 cycles: 411583441 heartbeat IPC: 0.608385 cumulative IPC: 0.601729 (Simulation time: 10 hr 26 min 25 sec) 
 Total Blocks : 262144 Invalid Blocks : 0
Heartbeat CPU 2 instructions: 360000000 cycles: 411853287 heartbeat IPC: 0.608135 cumulative IPC: 0.60112 (Simulation time: 10 hr 26 min 42 sec) 
 Total Blocks : 262144 Invalid Blocks : 0
Heartbeat CPU 5 instructions: 360000000 cycles: 411906725 heartbeat IPC: 0.608921 cumulative IPC: 0.601059 (Simulation time: 10 hr 26 min 46 sec) 
 Total Blocks : 262144 Invalid Blocks : 0
Heartbeat CPU 3 instructions: 360000000 cycles: 411918033 heartbeat IPC: 0.607254 cumulative IPC: 0.600939 (Simulation time: 10 hr 26 min 46 sec) 
 Total Blocks : 262144 Invalid Blocks : 0
Heartbeat CPU 1 instructions: 360000000 cycles: 412050029 heartbeat IPC: 0.606462 cumulative IPC: 0.600669 (Simulation time: 10 hr 26 min 55 sec) 
 Total Blocks : 262144 Invalid Blocks : 0
Heartbeat CPU 7 instructions: 360000000 cycles: 412302989 heartbeat IPC: 0.605107 cumulative IPC: 0.600144 (Simulation time: 10 hr 27 min 12 sec) 
 Total Blocks : 262144 Invalid Blocks : 0
Heartbeat CPU 6 instructions: 360000000 cycles: 412347256 heartbeat IPC: 0.605729 cumulative IPC: 0.600066 (Simulation time: 10 hr 27 min 15 sec) 
 Total Blocks : 262144 Invalid Blocks : 0
Heartbeat CPU 0 instructions: 370000000 cycles: 425079805 heartbeat IPC: 0.7391 cumulative IPC: 0.608508 (Simulation time: 10 hr 43 min 28 sec) 
 Total Blocks : 262144 Invalid Blocks : 0
Heartbeat CPU 4 instructions: 370000000 cycles: 425109554 heartbeat IPC: 0.739311 cumulative IPC: 0.60839 (Simulation time: 10 hr 43 min 30 sec) 
 Total Blocks : 262144 Invalid Blocks : 0
Heartbeat CPU 2 instructions: 370000000 cycles: 425409946 heartbeat IPC: 0.737645 cumulative IPC: 0.607738 (Simulation time: 10 hr 44 min 0 sec) 
 Total Blocks : 262144 Invalid Blocks : 0
Heartbeat CPU 5 instructions: 370000000 cycles: 425456247 heartbeat IPC: 0.738033 cumulative IPC: 0.607693 (Simulation time: 10 hr 44 min 3 sec) 
 Total Blocks : 262144 Invalid Blocks : 0
Heartbeat CPU 3 instructions: 370000000 cycles: 425489127 heartbeat IPC: 0.73686 cumulative IPC: 0.607532 (Simulation time: 10 hr 44 min 7 sec) 
 Total Blocks : 262144 Invalid Blocks : 0
Heartbeat CPU 1 instructions: 370000000 cycles: 425616740 heartbeat IPC: 0.737098 cumulative IPC: 0.607282 (Simulation time: 10 hr 44 min 18 sec) 
 Total Blocks : 262144 Invalid Blocks : 0
Heartbeat CPU 7 instructions: 370000000 cycles: 425871575 heartbeat IPC: 0.736996 cumulative IPC: 0.606772 (Simulation time: 10 hr 44 min 39 sec) 
 Total Blocks : 262144 Invalid Blocks : 0
Heartbeat CPU 6 instructions: 370000000 cycles: 425915316 heartbeat IPC: 0.737025 cumulative IPC: 0.606698 (Simulation time: 10 hr 44 min 43 sec) 
 Total Blocks : 262144 Invalid Blocks : 0
Heartbeat CPU 0 instructions: 380000001 cycles: 439168570 heartbeat IPC: 0.709786 cumulative IPC: 0.61337 (Simulation time: 11 hr 0 min 1 sec) 
 Total Blocks : 262144 Invalid Blocks : 0
Heartbeat CPU 4 instructions: 380000001 cycles: 439193130 heartbeat IPC: 0.710047 cumulative IPC: 0.613268 (Simulation time: 11 hr 0 min 3 sec) 
 Total Blocks : 262144 Invalid Blocks : 0
Heartbeat CPU 2 instructions: 380000001 cycles: 439515911 heartbeat IPC: 0.70892 cumulative IPC: 0.612595 (Simulation time: 11 hr 0 min 25 sec) 
 Total Blocks : 262144 Invalid Blocks : 0
Heartbeat CPU 5 instructions: 380000001 cycles: 439532479 heartbeat IPC: 0.710417 cumulative IPC: 0.612614 (Simulation time: 11 hr 0 min 26 sec) 
 Total Blocks : 262144 Invalid Blocks : 0
Heartbeat CPU 3 instructions: 380000001 cycles: 439600473 heartbeat IPC: 0.70865 cumulative IPC: 0.612387 (Simulation time: 11 hr 0 min 31 sec) 
 Total Blocks : 262144 Invalid Blocks : 0
Heartbeat CPU 1 instructions: 380000001 cycles: 439720927 heartbeat IPC: 0.709009 cumulative IPC: 0.612162 (Simulation time: 11 hr 0 min 40 sec) 
 Total Blocks : 262144 Invalid Blocks : 0
Heartbeat CPU 6 instructions: 380000001 cycles: 440037254 heartbeat IPC: 0.708118 cumulative IPC: 0.611564 (Simulation time: 11 hr 1 min 3 sec) 
 Total Blocks : 262144 Invalid Blocks : 0
Heartbeat CPU 7 instructions: 380000001 cycles: 440049711 heartbeat IPC: 0.705311 cumulative IPC: 0.611519 (Simulation time: 11 hr 1 min 4 sec) 
 Total Blocks : 262144 Invalid Blocks : 0
Heartbeat CPU 0 instructions: 390000000 cycles: 453220151 heartbeat IPC: 0.711664 cumulative IPC: 0.617862 (Simulation time: 11 hr 16 min 1 sec) 
 Total Blocks : 262144 Invalid Blocks : 0
Heartbeat CPU 4 instructions: 390000000 cycles: 453241311 heartbeat IPC: 0.711836 cumulative IPC: 0.617771 (Simulation time: 11 hr 16 min 2 sec) 
 Total Blocks : 262144 Invalid Blocks : 0
Heartbeat CPU 5 instructions: 390000000 cycles: 453572796 heartbeat IPC: 0.712235 cumulative IPC: 0.617158 (Simulation time: 11 hr 16 min 26 sec) 
 Total Blocks : 262144 Invalid Blocks : 0
Heartbeat CPU 2 instructions: 390000000 cycles: 453575033 heartbeat IPC: 0.711282 cumulative IPC: 0.617102 (Simulation time: 11 hr 16 min 26 sec) 
 Total Blocks : 262144 Invalid Blocks : 0
Heartbeat CPU 3 instructions: 390000000 cycles: 453688809 heartbeat IPC: 0.709807 cumulative IPC: 0.616844 (Simulation time: 11 hr 16 min 34 sec) 
 Total Blocks : 262144 Invalid Blocks : 0
Heartbeat CPU 1 instructions: 390000000 cycles: 453794602 heartbeat IPC: 0.710546 cumulative IPC: 0.616656 (Simulation time: 11 hr 16 min 41 sec) 
 Total Blocks : 262144 Invalid Blocks : 0
Heartbeat CPU 6 instructions: 390000000 cycles: 454116867 heartbeat IPC: 0.710247 cumulative IPC: 0.616069 (Simulation time: 11 hr 17 min 4 sec) 
 Total Blocks : 262144 Invalid Blocks : 0
Heartbeat CPU 7 instructions: 390000000 cycles: 454214908 heartbeat IPC: 0.705956 cumulative IPC: 0.615855 (Simulation time: 11 hr 17 min 10 sec) 
 Total Blocks : 262144 Invalid Blocks : 0
Heartbeat CPU 0 instructions: 400000001 cycles: 467162440 heartbeat IPC: 0.717242 cumulative IPC: 0.622172 (Simulation time: 11 hr 32 min 2 sec) 
 Total Blocks : 262144 Invalid Blocks : 0
Finished CPU 0 instructions: 200000002 cycles: 321453977 cumulative IPC: 0.622173 (Simulation time: 11 hr 32 min 2 sec) 
Heartbeat CPU 4 instructions: 400000001 cycles: 467176292 heartbeat IPC: 0.717619 cumulative IPC: 0.622099 (Simulation time: 11 hr 32 min 3 sec) 
 Total Blocks : 262144 Invalid Blocks : 0
Finished CPU 4 instructions: 200000003 cycles: 321491581 cumulative IPC: 0.6221 (Simulation time: 11 hr 32 min 4 sec) 
Heartbeat CPU 5 instructions: 400000001 cycles: 467503592 heartbeat IPC: 0.717834 cumulative IPC: 0.621516 (Simulation time: 11 hr 32 min 25 sec) 
 Total Blocks : 262144 Invalid Blocks : 0
Finished CPU 5 instructions: 200000002 cycles: 321793738 cumulative IPC: 0.621516 (Simulation time: 11 hr 32 min 25 sec) 
Heartbeat CPU 2 instructions: 400000001 cycles: 467508363 heartbeat IPC: 0.717704 cumulative IPC: 0.621458 (Simulation time: 11 hr 32 min 25 sec) 
 Total Blocks : 262144 Invalid Blocks : 0
Finished CPU 2 instructions: 200000001 cycles: 321823248 cumulative IPC: 0.621459 (Simulation time: 11 hr 32 min 27 sec) 
Heartbeat CPU 3 instructions: 400000001 cycles: 467655002 heartbeat IPC: 0.716015 cumulative IPC: 0.621146 (Simulation time: 11 hr 32 min 35 sec) 
 Total Blocks : 262144 Invalid Blocks : 0
Finished CPU 3 instructions: 200000000 cycles: 321985169 cumulative IPC: 0.621147 (Simulation time: 11 hr 32 min 38 sec) 
Heartbeat CPU 1 instructions: 400000001 cycles: 467757425 heartbeat IPC: 0.716188 cumulative IPC: 0.620972 (Simulation time: 11 hr 32 min 43 sec) 
 Total Blocks : 262144 Invalid Blocks : 0
Finished CPU 1 instructions: 200000002 cycles: 322075143 cumulative IPC: 0.620973 (Simulation time: 11 hr 32 min 44 sec) 
Heartbeat CPU 6 instructions: 400000001 cycles: 468119840 heartbeat IPC: 0.714134 cumulative IPC: 0.620328 (Simulation time: 11 hr 33 min 8 sec) 
 Total Blocks : 262144 Invalid Blocks : 0
Finished CPU 6 instructions: 200000001 cycles: 322409900 cumulative IPC: 0.620328 (Simulation time: 11 hr 33 min 8 sec) 
Heartbeat CPU 7 instructions: 400000001 cycles: 468252791 heartbeat IPC: 0.712358 cumulative IPC: 0.620055 (Simulation time: 11 hr 33 min 17 sec) 
 Total Blocks : 262144 Invalid Blocks : 0
Finished CPU 7 instructions: 200000001 cycles: 322550999 cumulative IPC: 0.620057 (Simulation time: 11 hr 33 min 18 sec) 

CPU 0 Branch Prediction Accuracy: 87.6616% MPKI: 14.8166 Average ROB Occupancy at Mispredict: 65.4073

CPU 1 Branch Prediction Accuracy: 87.6579% MPKI: 14.8157 Average ROB Occupancy at Mispredict: 65.3867

CPU 2 Branch Prediction Accuracy: 87.6602% MPKI: 14.8153 Average ROB Occupancy at Mispredict: 65.4515

CPU 3 Branch Prediction Accuracy: 87.6592% MPKI: 14.8146 Average ROB Occupancy at Mispredict: 65.4226

CPU 4 Branch Prediction Accuracy: 87.662% MPKI: 14.8152 Average ROB Occupancy at Mispredict: 65.4397

CPU 5 Branch Prediction Accuracy: 87.6599% MPKI: 14.8165 Average ROB Occupancy at Mispredict: 65.4144

CPU 6 Branch Prediction Accuracy: 87.6567% MPKI: 14.8162 Average ROB Occupancy at Mispredict: 65.4346

CPU 7 Branch Prediction Accuracy: 87.6559% MPKI: 14.8157 Average ROB Occupancy at Mispredict: 65.3746

ChampSim completed all CPUs

Total Simulation Statistics (not including warmup)

CPU 0 cumulative IPC: 0.622505 instructions: 200789498 cycles: 322550998
ITLB TOTAL     ACCESS: 22427902  HIT: 22427898  MISS:     4  HIT %:   100  MISS %: 1.78349e-05  AVERAGE MISS PENALTY: 109
ITLB LOAD      ACCESS: 22427902  HIT: 22427898  MISS:     4  HIT %:   100  MISS %: 1.78349e-05  AVERAGE MISS PENALTY: 109
ITLB RFO       ACCESS:     0  HIT:     0  MISS:     0  HIT %:     0  MISS %:     0  AVERAGE MISS PENALTY: 0
ITLB PREFETCH  ACCESS:     0  HIT:     0  MISS:     0  HIT %:     0  MISS %:     0  AVERAGE MISS PENALTY: 0
ITLB WRITEBACK ACCESS:     0  HIT:     0  MISS:     0  HIT %:     0  MISS %:     0  AVERAGE MISS PENALTY: 0

DTLB TOTAL     ACCESS: 37379163  HIT: 36771670  MISS: 607493  HIT %: 98.3748  MISS %: 1.62522  AVERAGE MISS PENALTY: 19.1277
DTLB LOAD      ACCESS: 26311563  HIT: 25774710  MISS: 536853  HIT %: 97.9596  MISS %: 2.04037  AVERAGE MISS PENALTY: 19.8391
DTLB RFO       ACCESS: 11067600  HIT: 10996960  MISS: 70640  HIT %: 99.3617  MISS %: 0.638259  AVERAGE MISS PENALTY: 13.7215
DTLB PREFETCH  ACCESS:     0  HIT:     0  MISS:     0  HIT %:     0  MISS %:     0  AVERAGE MISS PENALTY: 0
DTLB WRITEBACK ACCESS:     0  HIT:     0  MISS:     0  HIT %:     0  MISS %:     0  AVERAGE MISS PENALTY: 0

STLB TOTAL     ACCESS: 607497  HIT: 564802  MISS: 42695  HIT %: 92.972  MISS %: 7.02802  AVERAGE MISS PENALTY: 100
STLB LOAD      ACCESS: 536857  HIT: 495849  MISS: 41008  HIT %: 92.3615  MISS %: 7.63853  AVERAGE MISS PENALTY: 100
STLB RFO       ACCESS: 70640  HIT: 68953  MISS:  1687  HIT %: 97.6118  MISS %: 2.38817  AVERAGE MISS PENALTY: 100
STLB PREFETCH  ACCESS:     0  HIT:     0  MISS:     0  HIT %:     0  MISS %:     0  AVERAGE MISS PENALTY: 0
STLB WRITEBACK ACCESS:     0  HIT:     0  MISS:     0  HIT %:     0  MISS %:     0  AVERAGE MISS PENALTY: 0

L1D TOTAL     ACCESS: 56807610  HIT: 54852237  MISS: 1955373  HIT %: 96.5579  MISS %: 3.4421  AVERAGE MISS PENALTY: 3.65577e+06
L1D LOAD      ACCESS: 28955305  HIT: 28216011  MISS: 739294  HIT %: 97.4468  MISS %: 2.55322  AVERAGE MISS PENALTY: 9.47358e+06
L1D RFO       ACCESS: 17608168  HIT: 17454380  MISS: 153788  HIT %: 99.1266  MISS %: 0.87339  AVERAGE MISS PENALTY: 940061
L1D PREFETCH  ACCESS: 10244137  HIT: 9181846  MISS: 1062291  HIT %: 89.6303  MISS %: 10.3697  AVERAGE MISS PENALTY: 65.2297
L1D WRITEBACK ACCESS:     0  HIT:     0  MISS:     0  HIT %:     0  MISS %:     0  AVERAGE MISS PENALTY: 0

L1I TOTAL     ACCESS: 32490693  HIT: 32490279  MISS:   414  HIT %: 99.9987  MISS %: 0.00127421  AVERAGE MISS PENALTY: 128.87
L1I LOAD      ACCESS: 32490693  HIT: 32490279  MISS:   414  HIT %: 99.9987  MISS %: 0.00127421  AVERAGE MISS PENALTY: 128.87
L1I RFO       ACCESS:     0  HIT:     0  MISS:     0  HIT %:     0  MISS %:     0  AVERAGE MISS PENALTY: 0
L1I PREFETCH  ACCESS:     0  HIT:     0  MISS:     0  HIT %:     0  MISS %:     0  AVERAGE MISS PENALTY: 0
L1I WRITEBACK ACCESS:     0  HIT:     0  MISS:     0  HIT %:     0  MISS %:     0  AVERAGE MISS PENALTY: 0

L2C TOTAL     ACCESS: 3565285  HIT: 2621209  MISS: 944076  HIT %: 73.5203  MISS %: 26.4797  AVERAGE MISS PENALTY: 1.26518e+07
L2C LOAD      ACCESS: 738592  HIT: 464034  MISS: 274558  HIT %: 62.8268  MISS %: 37.1732  AVERAGE MISS PENALTY: 4.34963e+07
L2C RFO       ACCESS: 153230  HIT: 64173  MISS: 89057  HIT %: 41.8802  MISS %: 58.1198  AVERAGE MISS PENALTY: 21783.6
L2C PREFETCH  ACCESS: 1916967  HIT: 1338778  MISS: 578189  HIT %: 69.8383  MISS %: 30.1617  AVERAGE MISS PENALTY: 175.092
L2C WRITEBACK ACCESS: 756496  HIT: 754224  MISS:  2272  HIT %: 99.6997  MISS %: 0.300332  AVERAGE MISS PENALTY: 0


LLC0 TOTAL     ACCESS: 151905  HIT: 97767  MISS: 54138  HIT %: 64.3606  MISS %: 35.6394  AVERAGE MISS PENALTY: 571.668
LLC0 LOAD      ACCESS: 31551  HIT: 18997  MISS: 12554  HIT %: 60.2105  MISS %: 39.7895  AVERAGE MISS PENALTY: 578.86
LLC0 RFO       ACCESS: 11269  HIT:   804  MISS: 10465  HIT %: 7.13462  MISS %: 92.8654  AVERAGE MISS PENALTY: 989.68
LLC0 PREFETCH  ACCESS: 66393  HIT: 40361  MISS: 26032  HIT %: 60.791  MISS %: 39.209  AVERAGE MISS PENALTY: 511.867
LLC0 WRITEBACK ACCESS: 42692  HIT: 37605  MISS:  5087  HIT %: 88.0844  MISS %: 11.9156  AVERAGE MISS PENALTY: 0

LLC1 TOTAL     ACCESS: 161488  HIT: 104977  MISS: 56511  HIT %: 65.0061  MISS %: 34.9939  AVERAGE MISS PENALTY: 556.323
LLC1 LOAD      ACCESS: 31178  HIT: 21381  MISS:  9797  HIT %: 68.5772  MISS %: 31.4228  AVERAGE MISS PENALTY: 318.874
LLC1 RFO       ACCESS: 11252  HIT:   862  MISS: 10390  HIT %: 7.66086  MISS %: 92.3391  AVERAGE MISS PENALTY: 1002.33
LLC1 PREFETCH  ACCESS: 73638  HIT: 42432  MISS: 31206  HIT %: 57.6224  MISS %: 42.3776  AVERAGE MISS PENALTY: 573.612
LLC1 WRITEBACK ACCESS: 45420  HIT: 40302  MISS:  5118  HIT %: 88.7318  MISS %: 11.2682  AVERAGE MISS PENALTY: 0

LLC2 TOTAL     ACCESS: 167378  HIT: 109784  MISS: 57594  HIT %: 65.5905  MISS %: 34.4095  AVERAGE MISS PENALTY: 574.332
LLC2 LOAD      ACCESS: 32818  HIT: 20751  MISS: 12067  HIT %: 63.2305  MISS %: 36.7695  AVERAGE MISS PENALTY: 594.214
LLC2 RFO       ACCESS: 11342  HIT:   951  MISS: 10391  HIT %: 8.38476  MISS %: 91.6152  AVERAGE MISS PENALTY: 1051.46
LLC2 PREFETCH  ACCESS: 77411  HIT: 47316  MISS: 30095  HIT %: 61.1231  MISS %: 38.8769  AVERAGE MISS PENALTY: 497.824
LLC2 WRITEBACK ACCESS: 45807  HIT: 40766  MISS:  5041  HIT %: 88.9951  MISS %: 11.0049  AVERAGE MISS PENALTY: 0

LLC3 TOTAL     ACCESS: 172433  HIT: 115320  MISS: 57113  HIT %: 66.8781  MISS %: 33.1219  AVERAGE MISS PENALTY: 572.865
LLC3 LOAD      ACCESS: 32155  HIT: 22511  MISS:  9644  HIT %: 70.0078  MISS %: 29.9922  AVERAGE MISS PENALTY: 340.784
LLC3 RFO       ACCESS: 11399  HIT:  1051  MISS: 10348  HIT %: 9.22011  MISS %: 90.7799  AVERAGE MISS PENALTY: 1065.8
LLC3 PREFETCH  ACCESS: 81064  HIT: 49086  MISS: 31978  HIT %: 60.5522  MISS %: 39.4478  AVERAGE MISS PENALTY: 575.477
LLC3 WRITEBACK ACCESS: 47815  HIT: 42672  MISS:  5143  HIT %: 89.244  MISS %: 10.756  AVERAGE MISS PENALTY: 0

LLC4 TOTAL     ACCESS: 164806  HIT: 108745  MISS: 56061  HIT %: 65.9836  MISS %: 34.0164  AVERAGE MISS PENALTY: 559.162
LLC4 LOAD      ACCESS: 31198  HIT: 19709  MISS: 11489  HIT %: 63.1739  MISS %: 36.8261  AVERAGE MISS PENALTY: 584.361
LLC4 RFO       ACCESS: 11061  HIT:   730  MISS: 10331  HIT %: 6.59976  MISS %: 93.4002  AVERAGE MISS PENALTY: 980.016
LLC4 PREFETCH  ACCESS: 78542  HIT: 49211  MISS: 29331  HIT %: 62.6556  MISS %: 37.3444  AVERAGE MISS PENALTY: 494.661
LLC4 WRITEBACK ACCESS: 44005  HIT: 39095  MISS:  4910  HIT %: 88.8422  MISS %: 11.1578  AVERAGE MISS PENALTY: 0

LLC5 TOTAL     ACCESS: 161148  HIT: 105578  MISS: 55570  HIT %: 65.5162  MISS %: 34.4838  AVERAGE MISS PENALTY: 580.199
LLC5 LOAD      ACCESS: 28458  HIT: 19226  MISS:  9232  HIT %: 67.5592  MISS %: 32.4408  AVERAGE MISS PENALTY: 326.517
LLC5 RFO       ACCESS: 10883  HIT:   589  MISS: 10294  HIT %: 5.41211  MISS %: 94.5879  AVERAGE MISS PENALTY: 1047.4
LLC5 PREFETCH  ACCESS: 78162  HIT: 47024  MISS: 31138  HIT %: 60.1622  MISS %: 39.8378  AVERAGE MISS PENALTY: 592.374
LLC5 WRITEBACK ACCESS: 43645  HIT: 38739  MISS:  4906  HIT %: 88.7593  MISS %: 11.2407  AVERAGE MISS PENALTY: 0

LLC6 TOTAL     ACCESS: 160732  HIT: 104652  MISS: 56080  HIT %: 65.1096  MISS %: 34.8904  AVERAGE MISS PENALTY: 579.609
LLC6 LOAD      ACCESS: 31940  HIT: 20273  MISS: 11667  HIT %: 63.4721  MISS %: 36.5279  AVERAGE MISS PENALTY: 629.76
LLC6 RFO       ACCESS: 10952  HIT:   632  MISS: 10320  HIT %: 5.77064  MISS %: 94.2294  AVERAGE MISS PENALTY: 1055.31
LLC6 PREFETCH  ACCESS: 73699  HIT: 44608  MISS: 29091  HIT %: 60.5273  MISS %: 39.4727  AVERAGE MISS PENALTY: 490.401
LLC6 WRITEBACK ACCESS: 44141  HIT: 39139  MISS:  5002  HIT %: 88.6681  MISS %: 11.3319  AVERAGE MISS PENALTY: 0

LLC7 TOTAL     ACCESS: 157858  HIT: 101250  MISS: 56608  HIT %: 64.1399  MISS %: 35.8601  AVERAGE MISS PENALTY: 573.66
LLC7 LOAD      ACCESS: 28280  HIT: 18181  MISS: 10099  HIT %: 64.2893  MISS %: 35.7107  AVERAGE MISS PENALTY: 402.364
LLC7 RFO       ACCESS: 10891  HIT:   563  MISS: 10328  HIT %: 5.16941  MISS %: 94.8306  AVERAGE MISS PENALTY: 1074.14
LLC7 PREFETCH  ACCESS: 76265  HIT: 45056  MISS: 31209  HIT %: 59.0782  MISS %: 40.9218  AVERAGE MISS PENALTY: 554.857
LLC7 WRITEBACK ACCESS: 42422  HIT: 37450  MISS:  4972  HIT %: 88.2797  MISS %: 11.7203  AVERAGE MISS PENALTY: 0

Total Rob stall cycles : 	236844906
Total Load Rob Stall cycles : 	83909846
Average Rob Stall cycles : 	 6
Average Load Rob Stall cycles : 	 12

CPU 1 cumulative IPC: 0.621103 instructions: 200337292 cycles: 322550998
ITLB TOTAL     ACCESS: 22377641  HIT: 22377637  MISS:     4  HIT %:   100  MISS %: 1.7875e-05  AVERAGE MISS PENALTY: 109
ITLB LOAD      ACCESS: 22377641  HIT: 22377637  MISS:     4  HIT %:   100  MISS %: 1.7875e-05  AVERAGE MISS PENALTY: 109
ITLB RFO       ACCESS:     0  HIT:     0  MISS:     0  HIT %:     0  MISS %:     0  AVERAGE MISS PENALTY: 0
ITLB PREFETCH  ACCESS:     0  HIT:     0  MISS:     0  HIT %:     0  MISS %:     0  AVERAGE MISS PENALTY: 0
ITLB WRITEBACK ACCESS:     0  HIT:     0  MISS:     0  HIT %:     0  MISS %:     0  AVERAGE MISS PENALTY: 0

DTLB TOTAL     ACCESS: 37302783  HIT: 36696701  MISS: 606082  HIT %: 98.3752  MISS %: 1.62476  AVERAGE MISS PENALTY: 19.1481
DTLB LOAD      ACCESS: 26254691  HIT: 25718971  MISS: 535720  HIT %: 97.9595  MISS %: 2.04047  AVERAGE MISS PENALTY: 19.8583
DTLB RFO       ACCESS: 11048092  HIT: 10977730  MISS: 70362  HIT %: 99.3631  MISS %: 0.63687  AVERAGE MISS PENALTY: 13.7414
DTLB PREFETCH  ACCESS:     0  HIT:     0  MISS:     0  HIT %:     0  MISS %:     0  AVERAGE MISS PENALTY: 0
DTLB WRITEBACK ACCESS:     0  HIT:     0  MISS:     0  HIT %:     0  MISS %:     0  AVERAGE MISS PENALTY: 0

STLB TOTAL     ACCESS: 606086  HIT: 563399  MISS: 42687  HIT %: 92.9569  MISS %: 7.04306  AVERAGE MISS PENALTY: 100
STLB LOAD      ACCESS: 535724  HIT: 494723  MISS: 41001  HIT %: 92.3466  MISS %: 7.65338  AVERAGE MISS PENALTY: 100
STLB RFO       ACCESS: 70362  HIT: 68676  MISS:  1686  HIT %: 97.6038  MISS %: 2.39618  AVERAGE MISS PENALTY: 100
STLB PREFETCH  ACCESS:     0  HIT:     0  MISS:     0  HIT %:     0  MISS %:     0  AVERAGE MISS PENALTY: 0
STLB WRITEBACK ACCESS:     0  HIT:     0  MISS:     0  HIT %:     0  MISS %:     0  AVERAGE MISS PENALTY: 0

L1D TOTAL     ACCESS: 56693090  HIT: 54741892  MISS: 1951198  HIT %: 96.5583  MISS %: 3.44169  AVERAGE MISS PENALTY: 3.67542e+06
L1D LOAD      ACCESS: 28898346  HIT: 28160402  MISS: 737944  HIT %: 97.4464  MISS %: 2.55359  AVERAGE MISS PENALTY: 9.52619e+06
L1D RFO       ACCESS: 17576511  HIT: 17423079  MISS: 153432  HIT %: 99.1271  MISS %: 0.872938  AVERAGE MISS PENALTY: 922913
L1D PREFETCH  ACCESS: 10218233  HIT: 9158411  MISS: 1059822  HIT %: 89.6281  MISS %: 10.3719  AVERAGE MISS PENALTY: 66.7048
L1D WRITEBACK ACCESS:     0  HIT:     0  MISS:     0  HIT %:     0  MISS %:     0  AVERAGE MISS PENALTY: 0

L1I TOTAL     ACCESS: 32420186  HIT: 32419774  MISS:   412  HIT %: 99.9987  MISS %: 0.00127081  AVERAGE MISS PENALTY: 151.83
L1I LOAD      ACCESS: 32420186  HIT: 32419774  MISS:   412  HIT %: 99.9987  MISS %: 0.00127081  AVERAGE MISS PENALTY: 151.83
L1I RFO       ACCESS:     0  HIT:     0  MISS:     0  HIT %:     0  MISS %:     0  AVERAGE MISS PENALTY: 0
L1I PREFETCH  ACCESS:     0  HIT:     0  MISS:     0  HIT %:     0  MISS %:     0  AVERAGE MISS PENALTY: 0
L1I WRITEBACK ACCESS:     0  HIT:     0  MISS:     0  HIT %:     0  MISS %:     0  AVERAGE MISS PENALTY: 0

L2C TOTAL     ACCESS: 3557241  HIT: 2532003  MISS: 1025238  HIT %: 71.1788  MISS %: 28.8212  AVERAGE MISS PENALTY: 1.18994e+07
L2C LOAD      ACCESS: 737318  HIT: 438125  MISS: 299193  HIT %: 59.4214  MISS %: 40.5786  AVERAGE MISS PENALTY: 4.07705e+07
L2C RFO       ACCESS: 152873  HIT: 59678  MISS: 93195  HIT %: 39.0376  MISS %: 60.9624  AVERAGE MISS PENALTY: 15153.7
L2C PREFETCH  ACCESS: 1912193  HIT: 1282978  MISS: 629215  HIT %: 67.0946  MISS %: 32.9054  AVERAGE MISS PENALTY: 164.287
L2C WRITEBACK ACCESS: 754857  HIT: 751222  MISS:  3635  HIT %: 99.5185  MISS %: 0.481548  AVERAGE MISS PENALTY: 0


LLC0 TOTAL     ACCESS: 163539  HIT: 109453  MISS: 54086  HIT %: 66.9278  MISS %: 33.0722  AVERAGE MISS PENALTY: 584.558
LLC0 LOAD      ACCESS: 34157  HIT: 21612  MISS: 12545  HIT %: 63.2725  MISS %: 36.7275  AVERAGE MISS PENALTY: 578.396
LLC0 RFO       ACCESS: 11760  HIT:  1302  MISS: 10458  HIT %: 11.0714  MISS %: 88.9286  AVERAGE MISS PENALTY: 1015.22
LLC0 PREFETCH  ACCESS: 70873  HIT: 44524  MISS: 26349  HIT %: 62.8222  MISS %: 37.1778  AVERAGE MISS PENALTY: 521.586
LLC0 WRITEBACK ACCESS: 46749  HIT: 42015  MISS:  4734  HIT %: 89.8736  MISS %: 10.1264  AVERAGE MISS PENALTY: 0

LLC1 TOTAL     ACCESS: 178910  HIT: 122671  MISS: 56239  HIT %: 68.5658  MISS %: 31.4342  AVERAGE MISS PENALTY: 567.555
LLC1 LOAD      ACCESS: 35181  HIT: 25304  MISS:  9877  HIT %: 71.9252  MISS %: 28.0748  AVERAGE MISS PENALTY: 304.474
LLC1 RFO       ACCESS: 12266  HIT:  1864  MISS: 10402  HIT %: 15.1965  MISS %: 84.8035  AVERAGE MISS PENALTY: 1040.56
LLC1 PREFETCH  ACCESS: 79837  HIT: 48637  MISS: 31200  HIT %: 60.9204  MISS %: 39.0796  AVERAGE MISS PENALTY: 579.727
LLC1 WRITEBACK ACCESS: 51626  HIT: 46866  MISS:  4760  HIT %: 90.7798  MISS %: 9.22016  AVERAGE MISS PENALTY: 0

LLC2 TOTAL     ACCESS: 186925  HIT: 129425  MISS: 57500  HIT %: 69.239  MISS %: 30.761  AVERAGE MISS PENALTY: 584.648
LLC2 LOAD      ACCESS: 36804  HIT: 24828  MISS: 11976  HIT %: 67.4601  MISS %: 32.5399  AVERAGE MISS PENALTY: 582.034
LLC2 RFO       ACCESS: 12202  HIT:  1798  MISS: 10404  HIT %: 14.7353  MISS %: 85.2647  AVERAGE MISS PENALTY: 1094.09
LLC2 PREFETCH  ACCESS: 85998  HIT: 55694  MISS: 30304  HIT %: 64.762  MISS %: 35.238  AVERAGE MISS PENALTY: 503.694
LLC2 WRITEBACK ACCESS: 51921  HIT: 47105  MISS:  4816  HIT %: 90.7244  MISS %: 9.27563  AVERAGE MISS PENALTY: 0

LLC3 TOTAL     ACCESS: 192828  HIT: 135642  MISS: 57186  HIT %: 70.3435  MISS %: 29.6565  AVERAGE MISS PENALTY: 585.177
LLC3 LOAD      ACCESS: 36478  HIT: 26603  MISS:  9875  HIT %: 72.9289  MISS %: 27.0711  AVERAGE MISS PENALTY: 323.915
LLC3 RFO       ACCESS: 12461  HIT:  2086  MISS: 10375  HIT %: 16.7402  MISS %: 83.2598  AVERAGE MISS PENALTY: 1114.56
LLC3 PREFETCH  ACCESS: 89703  HIT: 57681  MISS: 32022  HIT %: 64.3022  MISS %: 35.6978  AVERAGE MISS PENALTY: 584.029
[...]
 TIMELY PREFETCHES:      20188 LATE PREFETCHES: 0 DROPPED PREFETCHES: 0
LLC1 AVERAGE MISS LATENCY: 557.931 cycles
LLC2 TOTAL     ACCESS: 198980  HIT: 141502  MISS: 57478  HIT %: 71.1137  MISS %: 28.8863  AVERAGE MISS PENALTY: 573.182
LLC2 LOAD      ACCESS: 39877  HIT: 27884  MISS: 11993  HIT %: 69.925  MISS %: 30.075  AVERAGE MISS PENALTY: 546.242
LLC2 RFO       ACCESS: 11450  HIT:  1048  MISS: 10402  HIT %: 9.15284  MISS %: 90.8472  AVERAGE MISS PENALTY: 1139.82
LLC2 PREFETCH  ACCESS: 94034  HIT: 63587  MISS: 30447  HIT %: 67.6213  MISS %: 32.3787  AVERAGE MISS PENALTY: 477.481
LLC2 WRITEBACK ACCESS: 53619  HIT: 48983  MISS:  4636  HIT %: 91.3538  MISS %: 8.64619  AVERAGE MISS PENALTY: 0
LLC2 PREFETCH  REQUESTED:     0  ISSUED:     0  USEFUL: 20922  USELESS: 219263
 USEFUL LOAD PREFETCHES:      20922 PREFETCH ISSUED TO LOWER LEVEL:   11524311  ACCURACY: 0.181547
 TIMELY PREFETCHES:      20922 LATE PREFETCHES: 0 DROPPED PREFETCHES: 0
LLC2 AVERAGE MISS LATENCY: 573.182 cycles
LLC3 TOTAL     ACCESS: 202697  HIT: 145675  MISS: 57022  HIT %: 71.8684  MISS %: 28.1316  AVERAGE MISS PENALTY: 573.601
LLC3 LOAD      ACCESS: 38672  HIT: 28864  MISS:  9808  HIT %: 74.638  MISS %: 25.362  AVERAGE MISS PENALTY: 274.484
LLC3 RFO       ACCESS: 11810  HIT:  1470  MISS: 10340  HIT %: 12.4471  MISS %: 87.5529  AVERAGE MISS PENALTY: 1144.56
LLC3 PREFETCH  ACCESS: 97345  HIT: 65190  MISS: 32155  HIT %: 66.968  MISS %: 33.032  AVERAGE MISS PENALTY: 565.416
LLC3 WRITEBACK ACCESS: 54870  HIT: 50151  MISS:  4719  HIT %: 91.3997  MISS %: 8.60033  AVERAGE MISS PENALTY: 0
LLC3 PREFETCH  REQUESTED:     0  ISSUED:     0  USEFUL: 21733  USELESS: 232544
 USEFUL LOAD PREFETCHES:      21733 PREFETCH ISSUED TO LOWER LEVEL:   21673674  ACCURACY: 0.100274
 TIMELY PREFETCHES:      21733 LATE PREFETCHES: 0 DROPPED PREFETCHES: 0
LLC3 AVERAGE MISS LATENCY: 573.601 cycles
LLC4 TOTAL     ACCESS: 194501  HIT: 138862  MISS: 55639  HIT %: 71.394  MISS %: 28.606  AVERAGE MISS PENALTY: 565.743
LLC4 LOAD      ACCESS: 37919  HIT: 26473  MISS: 11446  HIT %: 69.8146  MISS %: 30.1854  AVERAGE MISS PENALTY: 533.563
LLC4 RFO       ACCESS: 11167  HIT:   844  MISS: 10323  HIT %: 7.55798  MISS %: 92.442  AVERAGE MISS PENALTY: 1066.56
LLC4 PREFETCH  ACCESS: 94533  HIT: 64973  MISS: 29560  HIT %: 68.7305  MISS %: 31.2695  AVERAGE MISS PENALTY: 485.796
LLC4 WRITEBACK ACCESS: 50882  HIT: 46572  MISS:  4310  HIT %: 91.5294  MISS %: 8.47058  AVERAGE MISS PENALTY: 0
LLC4 PREFETCH  REQUESTED:     0  ISSUED:     0  USEFUL: 21068  USELESS: 212693
 USEFUL LOAD PREFETCHES:      21068 PREFETCH ISSUED TO LOWER LEVEL:   13058995  ACCURACY: 0.161329
 TIMELY PREFETCHES:      21068 LATE PREFETCHES: 0 DROPPED PREFETCHES: 0
LLC4 AVERAGE MISS LATENCY: 565.743 cycles
LLC5 TOTAL     ACCESS: 190546  HIT: 135542  MISS: 55004  HIT %: 71.1335  MISS %: 28.8665  AVERAGE MISS PENALTY: 588.572
LLC5 LOAD      ACCESS: 34987  HIT: 25730  MISS:  9257  HIT %: 73.5416  MISS %: 26.4584  AVERAGE MISS PENALTY: 274.901
LLC5 RFO       ACCESS: 10941  HIT:   663  MISS: 10278  HIT %: 6.05978  MISS %: 93.9402  AVERAGE MISS PENALTY: 1128.79
LLC5 PREFETCH  ACCESS: 94153  HIT: 63041  MISS: 31112  HIT %: 66.9559  MISS %: 33.0441  AVERAGE MISS PENALTY: 585.863
LLC5 WRITEBACK ACCESS: 50465  HIT: 46108  MISS:  4357  HIT %: 91.3663  MISS %: 8.63371  AVERAGE MISS PENALTY: 0
LLC5 PREFETCH  REQUESTED:     0  ISSUED:     0  USEFUL: 20976  USELESS: 225889
 USEFUL LOAD PREFETCHES:      20976 PREFETCH ISSUED TO LOWER LEVEL:   26105969  ACCURACY: 0.0803494
 TIMELY PREFETCHES:      20976 LATE PREFETCHES: 0 DROPPED PREFETCHES: 0
LLC5 AVERAGE MISS LATENCY: 588.572 cycles
LLC6 TOTAL     ACCESS: 187962  HIT: 132410  MISS: 55552  HIT %: 70.4451  MISS %: 29.5549  AVERAGE MISS PENALTY: 584.147
LLC6 LOAD      ACCESS: 37624  HIT: 26034  MISS: 11590  HIT %: 69.1952  MISS %: 30.8048  AVERAGE MISS PENALTY: 578.23
LLC6 RFO       ACCESS: 11027  HIT:   697  MISS: 10330  HIT %: 6.32085  MISS %: 93.6792  AVERAGE MISS PENALTY: 1141.31
LLC6 PREFETCH  ACCESS: 89439  HIT: 60175  MISS: 29264  HIT %: 67.2805  MISS %: 32.7195  AVERAGE MISS PENALTY: 477.005
LLC6 WRITEBACK ACCESS: 49872  HIT: 45504  MISS:  4368  HIT %: 91.2416  MISS %: 8.75842  AVERAGE MISS PENALTY: 0
LLC6 PREFETCH  REQUESTED:     0  ISSUED:     0  USEFUL: 19703  USELESS: 211931
 USEFUL LOAD PREFETCHES:      19703 PREFETCH ISSUED TO LOWER LEVEL:   16066915  ACCURACY: 0.122631
 TIMELY PREFETCHES:      19703 LATE PREFETCHES: 0 DROPPED PREFETCHES: 0
LLC6 AVERAGE MISS LATENCY: 584.147 cycles
LLC7 TOTAL     ACCESS: 184952  HIT: 128398  MISS: 56554  HIT %: 69.4223  MISS %: 30.5777  AVERAGE MISS PENALTY: 571.655
LLC7 LOAD      ACCESS: 34728  HIT: 24700  MISS: 10028  HIT %: 71.1242  MISS %: 28.8758  AVERAGE MISS PENALTY: 336.882
LLC7 RFO       ACCESS: 10946  HIT:   640  MISS: 10306  HIT %: 5.84688  MISS %: 94.1531  AVERAGE MISS PENALTY: 1154.51
LLC7 PREFETCH  ACCESS: 90408  HIT: 58763  MISS: 31645  HIT %: 64.9976  MISS %: 35.0024  AVERAGE MISS PENALTY: 538.876
LLC7 WRITEBACK ACCESS: 48870  HIT: 44295  MISS:  4575  HIT %: 90.6384  MISS %: 9.36157  AVERAGE MISS PENALTY: 0
LLC7 PREFETCH  REQUESTED:     0  ISSUED:     0  USEFUL: 20053  USELESS: 228714
 USEFUL LOAD PREFETCHES:      20053 PREFETCH ISSUED TO LOWER LEVEL:   35822483  ACCURACY: 0.0559788
 TIMELY PREFETCHES:      20053 LATE PREFETCHES: 0 DROPPED PREFETCHES: 0
LLC7 AVERAGE MISS LATENCY: 571.655 cycles
ROI Average ROB Stall Cycles:	6.42111
ROI Total ROB Stalls Cycles:	237091488
ROI TOTAL ROB counter      :	36923759
ROI Average Load ROB Stall Cycles:	12.3803
ROI Total Load ROB Stalls Cycle  :	84789254
ROI Total Load ROB stalls Counter:	6848746
Major fault: 0 Minor fault: 9188

CPU 7 cumulative IPC: 0.620057 instructions: 200000001 cycles: 322550999
ITLB TOTAL     ACCESS: 22339450  HIT: 22339446  MISS:     4  HIT %:   100  MISS %: 1.79055e-05  AVERAGE MISS PENALTY: 109
ITLB LOAD      ACCESS: 22339450  HIT: 22339446  MISS:     4  HIT %:   100  MISS %: 1.79055e-05  AVERAGE MISS PENALTY: 109
ITLB RFO       ACCESS:     0  HIT:     0  MISS:     0  HIT %:     0  MISS %:     0  AVERAGE MISS PENALTY: 0
ITLB PREFETCH  ACCESS:     0  HIT:     0  MISS:     0  HIT %:     0  MISS %:     0  AVERAGE MISS PENALTY: 0
ITLB WRITEBACK ACCESS:     0  HIT:     0  MISS:     0  HIT %:     0  MISS %:     0  AVERAGE MISS PENALTY: 0
ITLB PREFETCH  REQUESTED:     0  ISSUED:     0  USEFUL:     0  USELESS:     0
 USEFUL LOAD PREFETCHES:          0 PREFETCH ISSUED TO LOWER LEVEL:          0  ACCURACY: -nan
 TIMELY PREFETCHES:          0 LATE PREFETCHES: 0 DROPPED PREFETCHES: 0
ITLB AVERAGE MISS LATENCY: 109 cycles
DTLB TOTAL     ACCESS: 37242960  HIT: 36638066  MISS: 604894  HIT %: 98.3758  MISS %: 1.62418  AVERAGE MISS PENALTY: 19.1662
DTLB LOAD      ACCESS: 26210032  HIT: 25675293  MISS: 534739  HIT %: 97.9598  MISS %: 2.04021  AVERAGE MISS PENALTY: 19.876
DTLB RFO       ACCESS: 11032928  HIT: 10962773  MISS: 70155  HIT %: 99.3641  MISS %: 0.635869  AVERAGE MISS PENALTY: 13.7553
DTLB PREFETCH  ACCESS:     0  HIT:     0  MISS:     0  HIT %:     0  MISS %:     0  AVERAGE MISS PENALTY: 0
DTLB WRITEBACK ACCESS:     0  HIT:     0  MISS:     0  HIT %:     0  MISS %:     0  AVERAGE MISS PENALTY: 0
DTLB PREFETCH  REQUESTED:     0  ISSUED:     0  USEFUL:     0  USELESS:     0
 USEFUL LOAD PREFETCHES:          0 PREFETCH ISSUED TO LOWER LEVEL:          0  ACCURACY: -nan
 TIMELY PREFETCHES:          0 LATE PREFETCHES: 0 DROPPED PREFETCHES: 0
DTLB AVERAGE MISS LATENCY: 19.1662 cycles
STLB TOTAL     ACCESS: 604898  HIT: 562207  MISS: 42691  HIT %: 92.9424  MISS %: 7.05755  AVERAGE MISS PENALTY: 100
STLB LOAD      ACCESS: 534743  HIT: 493737  MISS: 41006  HIT %: 92.3316  MISS %: 7.66836  AVERAGE MISS PENALTY: 100
STLB RFO       ACCESS: 70155  HIT: 68470  MISS:  1685  HIT %: 97.5982  MISS %: 2.40182  AVERAGE MISS PENALTY: 100
STLB PREFETCH  ACCESS:     0  HIT:     0  MISS:     0  HIT %:     0  MISS %:     0  AVERAGE MISS PENALTY: 0
STLB WRITEBACK ACCESS:     0  HIT:     0  MISS:     0  HIT %:     0  MISS %:     0  AVERAGE MISS PENALTY: 0
STLB PREFETCH  REQUESTED:     0  ISSUED:     0  USEFUL:     0  USELESS:     0
 USEFUL LOAD PREFETCHES:          0 PREFETCH ISSUED TO LOWER LEVEL:          0  ACCURACY: -nan
 TIMELY PREFETCHES:          0 LATE PREFETCHES: 0 DROPPED PREFETCHES: 0
STLB AVERAGE MISS LATENCY: 100 cycles
L1D TOTAL     ACCESS: 56623134  HIT: 54675190  MISS: 1947944  HIT %: 96.5598  MISS %: 3.44019  AVERAGE MISS PENALTY: 3.73631e+06
L1D LOAD      ACCESS: 28859355  HIT: 28122113  MISS: 737242  HIT %: 97.4454  MISS %: 2.5546  AVERAGE MISS PENALTY: 9.67664e+06
L1D RFO       ACCESS: 17551061  HIT: 17397945  MISS: 153116  HIT %: 99.1276  MISS %: 0.872403  AVERAGE MISS PENALTY: 940667
L1D PREFETCH  ACCESS: 10212718  HIT: 9155132  MISS: 1057586  HIT %: 89.6444  MISS %: 10.3556  AVERAGE MISS PENALTY: 67.971
L1D WRITEBACK ACCESS:     0  HIT:     0  MISS:     0  HIT %:     0  MISS %:     0  AVERAGE MISS PENALTY: 0
L1D PREFETCH  REQUESTED: 11067444  ISSUED: 10693570  USEFUL: 195055  USELESS: 862503
 USEFUL LOAD PREFETCHES:     195055 PREFETCH ISSUED TO LOWER LEVEL:   14143867  ACCURACY: 1.37908
 TIMELY PREFETCHES:     195055 LATE PREFETCHES: 86899 DROPPED PREFETCHES: 373874
L1D AVERAGE MISS LATENCY: 74028.4 cycles
L1I TOTAL     ACCESS: 32365986  HIT: 32365570  MISS:   416  HIT %: 99.9987  MISS %: 0.0012853  AVERAGE MISS PENALTY: 137.394
L1I LOAD      ACCESS: 32365986  HIT: 32365570  MISS:   416  HIT %: 99.9987  MISS %: 0.0012853  AVERAGE MISS PENALTY: 137.394
L1I RFO       ACCESS:     0  HIT:     0  MISS:     0  HIT %:     0  MISS %:     0  AVERAGE MISS PENALTY: 0
L1I PREFETCH  ACCESS:     0  HIT:     0  MISS:     0  HIT %:     0  MISS %:     0  AVERAGE MISS PENALTY: 0
L1I WRITEBACK ACCESS:     0  HIT:     0  MISS:     0  HIT %:     0  MISS %:     0  AVERAGE MISS PENALTY: 0
L1I PREFETCH  REQUESTED:     0  ISSUED:     0  USEFUL:     0  USELESS:     0
 USEFUL LOAD PREFETCHES:          0 PREFETCH ISSUED TO LOWER LEVEL:          0  ACCURACY: -nan
 TIMELY PREFETCHES:          0 LATE PREFETCHES: 0 DROPPED PREFETCHES: 0
L1I AVERAGE MISS LATENCY: 137.394 cycles
L2C TOTAL     ACCESS: 3551497  HIT: 2404021  MISS: 1147476  HIT %: 67.6904  MISS %: 32.3096  AVERAGE MISS PENALTY: 1.06711e+07
L2C LOAD      ACCESS: 736594  HIT: 406856  MISS: 329738  HIT %: 55.2348  MISS %: 44.7652  AVERAGE MISS PENALTY: 3.71315e+07
L2C RFO       ACCESS: 152557  HIT: 51094  MISS: 101463  HIT %: 33.4917  MISS %: 66.5083  AVERAGE MISS PENALTY: 10557.7
L2C PREFETCH  ACCESS: 1908779  HIT: 1202758  MISS: 706021  HIT %: 63.0119  MISS %: 36.9881  AVERAGE MISS PENALTY: 150.628
L2C WRITEBACK ACCESS: 753567  HIT: 743313  MISS: 10254  HIT %: 98.6393  MISS %: 1.36073  AVERAGE MISS PENALTY: 0
L2C PREFETCH  REQUESTED: 1410123  ISSUED: 1394431  USEFUL: 65682  USELESS: 640400
 USEFUL LOAD PREFETCHES:      65682 PREFETCH ISSUED TO LOWER LEVEL:     799591  ACCURACY: 8.21445
 TIMELY PREFETCHES:      65682 LATE PREFETCHES: 56137 DROPPED PREFETCHES: 15692
L2C AVERAGE MISS LATENCY: 253.384 cycles
LLC0 TOTAL     ACCESS: 180484  HIT: 126638  MISS: 53846  HIT %: 70.1658  MISS %: 29.8342  AVERAGE MISS PENALTY: 583.292
LLC0 LOAD      ACCESS: 38415  HIT: 25830  MISS: 12585  HIT %: 67.2394  MISS %: 32.7606  AVERAGE MISS PENALTY: 578.837
LLC0 RFO       ACCESS: 12474  HIT:  2027  MISS: 10447  HIT %: 16.2498  MISS %: 83.7502  AVERAGE MISS PENALTY: 1025.57
LLC0 PREFETCH  ACCESS: 77969  HIT: 51904  MISS: 26065  HIT %: 66.57  MISS %: 33.43  AVERAGE MISS PENALTY: 514.451
LLC0 WRITEBACK ACCESS: 51626  HIT: 46877  MISS:  4749  HIT %: 90.8011  MISS %: 9.19885  AVERAGE MISS PENALTY: 0
LLC0 PREFETCH  REQUESTED:     0  ISSUED:     0  USEFUL: 17069  USELESS: 191182
 USEFUL LOAD PREFETCHES:      17069 PREFETCH ISSUED TO LOWER LEVEL:    9897031  ACCURACY: 0.172466
 TIMELY PREFETCHES:      17069 LATE PREFETCHES: 0 DROPPED PREFETCHES: 0
LLC0 AVERAGE MISS LATENCY: 583.292 cycles
Deadblocks : 85884 Deadblock percentage : 682.431

LLC1 TOTAL     ACCESS: 204292  HIT: 148084  MISS: 56208  HIT %: 72.4864  MISS %: 27.5136  AVERAGE MISS PENALTY: 565.406
LLC1 LOAD      ACCESS: 40739  HIT: 30800  MISS:  9939  HIT %: 75.6032  MISS %: 24.3968  AVERAGE MISS PENALTY: 291.185
LLC1 RFO       ACCESS: 14370  HIT:  3926  MISS: 10444  HIT %: 27.3208  MISS %: 72.6792  AVERAGE MISS PENALTY: 1035.91
LLC1 PREFETCH  ACCESS: 89942  HIT: 58911  MISS: 31031  HIT %: 65.4989  MISS %: 34.5011  AVERAGE MISS PENALTY: 582.231
LLC1 WRITEBACK ACCESS: 59241  HIT: 54447  MISS:  4794  HIT %: 91.9076  MISS %: 8.09237  AVERAGE MISS PENALTY: 0
LLC1 PREFETCH  REQUESTED:     0  ISSUED:     0  USEFUL: 20188  USELESS: 227445
 USEFUL LOAD PREFETCHES:      20188 PREFETCH ISSUED TO LOWER LEVEL:   19247938  ACCURACY: 0.104884
 TIMELY PREFETCHES:      20188 LATE PREFETCHES: 0 DROPPED PREFETCHES: 0
LLC1 AVERAGE MISS LATENCY: 565.406 cycles
LLC2 TOTAL     ACCESS: 212858  HIT: 155441  MISS: 57417  HIT %: 73.0257  MISS %: 26.9743  AVERAGE MISS PENALTY: 587.241
LLC2 LOAD      ACCESS: 41368  HIT: 29260  MISS: 12108  HIT %: 70.731  MISS %: 29.269  AVERAGE MISS PENALTY: 592.786
LLC2 RFO       ACCESS: 13847  HIT:  3438  MISS: 10409  HIT %: 24.8285  MISS %: 75.1715  AVERAGE MISS PENALTY: 1123.03
LLC2 PREFETCH  ACCESS: 98716  HIT: 68646  MISS: 30070  HIT %: 69.5389  MISS %: 30.4611  AVERAGE MISS PENALTY: 493.865
LLC2 WRITEBACK ACCESS: 58927  HIT: 54097  MISS:  4830  HIT %: 91.8034  MISS %: 8.19658  AVERAGE MISS PENALTY: 0
LLC2 PREFETCH  REQUESTED:     0  ISSUED:     0  USEFUL: 20922  USELESS: 219263
 USEFUL LOAD PREFETCHES:      20922 PREFETCH ISSUED TO LOWER LEVEL:   11524311  ACCURACY: 0.181547
 TIMELY PREFETCHES:      20922 LATE PREFETCHES: 0 DROPPED PREFETCHES: 0
LLC2 AVERAGE MISS LATENCY: 587.241 cycles
LLC3 TOTAL     ACCESS: 217829  HIT: 160853  MISS: 56976  HIT %: 73.8437  MISS %: 26.1563  AVERAGE MISS PENALTY: 585.106
LLC3 LOAD      ACCESS: 40481  HIT: 30666  MISS:  9815  HIT %: 75.7541  MISS %: 24.2459  AVERAGE MISS PENALTY: 302.504
LLC3 RFO       ACCESS: 14385  HIT:  3982  MISS: 10403  HIT %: 27.6816  MISS %: 72.3184  AVERAGE MISS PENALTY: 1117.94
LLC3 PREFETCH  ACCESS: 102384  HIT: 70467  MISS: 31917  HIT %: 68.8262  MISS %: 31.1738  AVERAGE MISS PENALTY: 587.085
LLC3 WRITEBACK ACCESS: 60579  HIT: 55738  MISS:  4841  HIT %: 92.0088  MISS %: 7.99122  AVERAGE MISS PENALTY: 0
LLC3 PREFETCH  REQUESTED:     0  ISSUED:     0  USEFUL: 21733  USELESS: 232544
 USEFUL LOAD PREFETCHES:      21733 PREFETCH ISSUED TO LOWER LEVEL:   21673674  ACCURACY: 0.100274
 TIMELY PREFETCHES:      21733 LATE PREFETCHES: 0 DROPPED PREFETCHES: 0
LLC3 AVERAGE MISS LATENCY: 585.106 cycles
LLC4 TOTAL     ACCESS: 196662  HIT: 140996  MISS: 55666  HIT %: 71.6946  MISS %: 28.3054  AVERAGE MISS PENALTY: 570.622
LLC4 LOAD      ACCESS: 37003  HIT: 25592  MISS: 11411  HIT %: 69.162  MISS %: 30.838  AVERAGE MISS PENALTY: 567.741
LLC4 RFO       ACCESS: 11768  HIT:  1446  MISS: 10322  HIT %: 12.2876  MISS %: 87.7124  AVERAGE MISS PENALTY: 1034.04
LLC4 PREFETCH  ACCESS: 96727  HIT: 67419  MISS: 29308  HIT %: 69.7003  MISS %: 30.2997  AVERAGE MISS PENALTY: 498.578
LLC4 WRITEBACK ACCESS: 51164  HIT: 46539  MISS:  4625  HIT %: 90.9604  MISS %: 9.03956  AVERAGE MISS PENALTY: 0
LLC4 PREFETCH  REQUESTED:     0  ISSUED:     0  USEFUL: 21068  USELESS: 212693
 USEFUL LOAD PREFETCHES:      21068 PREFETCH ISSUED TO LOWER LEVEL:   13058995  ACCURACY: 0.161329
 TIMELY PREFETCHES:      21068 LATE PREFETCHES: 0 DROPPED PREFETCHES: 0
LLC4 AVERAGE MISS LATENCY: 570.622 cycles
LLC5 TOTAL     ACCESS: 190187  HIT: 134834  MISS: 55353  HIT %: 70.8955  MISS %: 29.1045  AVERAGE MISS PENALTY: 592.666
LLC5 LOAD      ACCESS: 33988  HIT: 24706  MISS:  9282  HIT %: 72.6904  MISS %: 27.3096  AVERAGE MISS PENALTY: 296.396
LLC5 RFO       ACCESS: 11561  HIT:  1255  MISS: 10306  HIT %: 10.8555  MISS %: 89.1445  AVERAGE MISS PENALTY: 1100.4
LLC5 PREFETCH  ACCESS: 94027  HIT: 62874  MISS: 31153  HIT %: 66.868  MISS %: 33.132  AVERAGE MISS PENALTY: 600.713
LLC5 WRITEBACK ACCESS: 50611  HIT: 45999  MISS:  4612  HIT %: 90.8874  MISS %: 9.11264  AVERAGE MISS PENALTY: 0
LLC5 PREFETCH  REQUESTED:     0  ISSUED:     0  USEFUL: 20976  USELESS: 225889
 USEFUL LOAD PREFETCHES:      20976 PREFETCH ISSUED TO LOWER LEVEL:   26105969  ACCURACY: 0.0803494
 TIMELY PREFETCHES:      20976 LATE PREFETCHES: 0 DROPPED PREFETCHES: 0
LLC5 AVERAGE MISS LATENCY: 592.666 cycles
LLC6 TOTAL     ACCESS: 185579  HIT: 129829  MISS: 55750  HIT %: 69.9589  MISS %: 30.0411  AVERAGE MISS PENALTY: 593.956
LLC6 LOAD      ACCESS: 37213  HIT: 25646  MISS: 11567  HIT %: 68.9168  MISS %: 31.0832  AVERAGE MISS PENALTY: 614.636
LLC6 RFO       ACCESS: 11637  HIT:  1296  MISS: 10341  HIT %: 11.1369  MISS %: 88.8631  AVERAGE MISS PENALTY: 1114.27
LLC6 PREFETCH  ACCESS: 85875  HIT: 56767  MISS: 29108  HIT %: 66.1042  MISS %: 33.8958  AVERAGE MISS PENALTY: 497.49
LLC6 WRITEBACK ACCESS: 50854  HIT: 46120  MISS:  4734  HIT %: 90.691  MISS %: 9.309  AVERAGE MISS PENALTY: 0
LLC6 PREFETCH  REQUESTED:     0  ISSUED:     0  USEFUL: 19703  USELESS: 211931
 USEFUL LOAD PREFETCHES:      19703 PREFETCH ISSUED TO LOWER LEVEL:   16066915  ACCURACY: 0.122631
 TIMELY PREFETCHES:      19703 LATE PREFETCHES: 0 DROPPED PREFETCHES: 0
LLC6 AVERAGE MISS LATENCY: 593.956 cycles
LLC7 TOTAL     ACCESS: 180518  HIT: 123977  MISS: 56541  HIT %: 68.6785  MISS %: 31.3215  AVERAGE MISS PENALTY: 583.394
LLC7 LOAD      ACCESS: 32833  HIT: 22630  MISS: 10203  HIT %: 68.9246  MISS %: 31.0754  AVERAGE MISS PENALTY: 363.943
LLC7 RFO       ACCESS: 11383  HIT:  1057  MISS: 10326  HIT %: 9.28578  MISS %: 90.7142  AVERAGE MISS PENALTY: 1135.11
LLC7 PREFETCH  ACCESS: 88077  HIT: 56900  MISS: 31177  HIT %: 64.6026  MISS %: 35.3974  AVERAGE MISS PENALTY: 562.953
LLC7 WRITEBACK ACCESS: 48225  HIT: 43390  MISS:  4835  HIT %: 89.9741  MISS %: 10.0259  AVERAGE MISS PENALTY: 0
LLC7 PREFETCH  REQUESTED:     0  ISSUED:     0  USEFUL: 20053  USELESS: 228714
 USEFUL LOAD PREFETCHES:      20053 PREFETCH ISSUED TO LOWER LEVEL:   35822483  ACCURACY: 0.0559788
 TIMELY PREFETCHES:      20053 LATE PREFETCHES: 0 DROPPED PREFETCHES: 0
LLC7 AVERAGE MISS LATENCY: 583.394 cycles
ROI Average ROB Stall Cycles:	6.41331
ROI Total ROB Stalls Cycles:	237211714
ROI TOTAL ROB counter      :	36987383
ROI Average Load ROB Stall Cycles:	12.3597
ROI Total Load ROB Stalls Cycle  :	84766816
ROI Total Load ROB stalls Counter:	6858338
Major fault: 0 Minor fault: 9188








Interconnect Stats 
LINK 0 BW : 0LINK 1 BW : 0LINK 2 BW : 0LINK 3 BW : 0LINK 4 BW : 0LINK 5 BW : 0LINK 6 BW : 0LINK 7 BW : 0
DRAM Statistics
 CHANNEL 0
 RQ ROW_BUFFER_HIT: 400027  ROW_BUFFER_MISS: 1232070
 DBUS_CONGESTED: 1604414
 WQ ROW_BUFFER_HIT: 85689  ROW_BUFFER_MISS: 624955  FULL:     0

 CHANNEL 1
 RQ ROW_BUFFER_HIT: 396736  ROW_BUFFER_MISS: 1251442
 DBUS_CONGESTED: 1604414
 WQ ROW_BUFFER_HIT: 87685  ROW_BUFFER_MISS: 631770  FULL:     0

 AVG_CONGESTED_CYCLE: 6
DRAM PAGES: 2097152
Allocated PAGES: 73504
L2C destructor called
L1D destructor called
L1I destructor called
STLB destructor called
DTLB destructor called
ITLB destructor called
L2C destructor called
L1D destructor called
L1I destructor called
STLB destructor called
DTLB destructor called
ITLB destructor called
L2C destructor called
L1D destructor called
L1I destructor called
STLB destructor called
DTLB destructor called
ITLB destructor called
L2C destructor called
L1D destructor called
L1I destructor called
STLB destructor called
DTLB destructor called
ITLB destructor called
L2C destructor called
L1D destructor called
L1I destructor called
STLB destructor called
DTLB destructor called
ITLB destructor called
L2C destructor called
L1D destructor called
L1I destructor called
STLB destructor called
DTLB destructor called
ITLB destructor called
L2C destructor called
L1D destructor called
L1I destructor called
STLB destructor called
DTLB destructor called
ITLB destructor called
L2C destructor called
L1D destructor called
L1I destructor called
STLB destructor called
DTLB destructor called
ITLB destructor called
