
*** ChampSim Multicore Out-of-Order Simulator ***

Warmup Instructions: 200000000
Simulation Instructions: 200000000
Number of CPUs: 1
threads:1

L1I Configuration:
L1I_SET:64
L1I_WAY:8
L1I_RQ_SIZE:64
L1I_WQ_SIZE:64
L1I_PQ_SIZE:8
L1I_MSHR_SIZE:8

L1D Configuration:
L1D_SET:64
L1D_WAY:12
L1D_RQ_SIZE:64
L1D_WQ_SIZE:64
L1D_PQ_SIZE:8
L1D_MSHR_SIZE:16

L2C Configuration:
L2C_SET:1024
L2C_WAY:8
L2C_RQ_SIZE:32
L2C_WQ_SIZE:32
L2C_PQ_SIZE:16
L2C_MSHR_SIZE:32

LLC Configuration:
LLC_SET:2048
LLC_WAY:16
LLC SLICES:1
LLC_RQ_SIZE:64
LLC_WQ_SIZE:64
LLC_PQ_SIZE:32
LLC_MSHR_SIZE:64

Interconnect OFF
Attacker deprioritize is: OFF
Off-chip DRAM Size: 4096 MB Channels: 1 Width: 64-bit Data Rate: 3200 MT/s
PAGE SIZE in KB: 4.000000 
PAGE SIZE in MB: 0.003906 
PAGE offset in bits: 12 
CEASER-S_LLC:0
MIRAGE : 1
CEASER_LATENCY:3
REMAP : OFF
Partitions : 1
Multi-Step : OFF
BFS : OFF

CPU 0 runs /home/anubhav/gap/bc-3.trace.gz
CPU 0 Bimodal branch predictor
Initialize SRRIP state
Heartbeat CPU 0 instructions: 10000001 cycles: 7992220 heartbeat IPC: 1.25122 cumulative IPC: 1.25122 (Simulation time: 0 hr 5 min 37 sec) 
 Total Blocks : 32768 Invalid Blocks : 0
Heartbeat CPU 0 instructions: 20000002 cycles: 20158184 heartbeat IPC: 0.821965 cumulative IPC: 0.992153 (Simulation time: 0 hr 9 min 28 sec) 
 Total Blocks : 32768 Invalid Blocks : 0
Heartbeat CPU 0 instructions: 30000001 cycles: 30672075 heartbeat IPC: 0.951123 cumulative IPC: 0.978088 (Simulation time: 0 hr 13 min 30 sec) 
 Total Blocks : 32768 Invalid Blocks : 0
Heartbeat CPU 0 instructions: 40000003 cycles: 40721371 heartbeat IPC: 0.995095 cumulative IPC: 0.982285 (Simulation time: 0 hr 17 min 33 sec) 
 Total Blocks : 32768 Invalid Blocks : 0
Heartbeat CPU 0 instructions: 50000000 cycles: 50747171 heartbeat IPC: 0.997426 cumulative IPC: 0.985277 (Simulation time: 0 hr 21 min 48 sec) 
 Total Blocks : 32768 Invalid Blocks : 0
Heartbeat CPU 0 instructions: 60000000 cycles: 60775689 heartbeat IPC: 0.997156 cumulative IPC: 0.987237 (Simulation time: 0 hr 25 min 45 sec) 
 Total Blocks : 32768 Invalid Blocks : 0
Heartbeat CPU 0 instructions: 70000002 cycles: 70717572 heartbeat IPC: 1.00585 cumulative IPC: 0.989853 (Simulation time: 0 hr 29 min 55 sec) 
 Total Blocks : 32768 Invalid Blocks : 0
Heartbeat CPU 0 instructions: 80000003 cycles: 80597549 heartbeat IPC: 1.01215 cumulative IPC: 0.992586 (Simulation time: 0 hr 34 min 14 sec) 
 Total Blocks : 32768 Invalid Blocks : 0
Heartbeat CPU 0 instructions: 90000000 cycles: 90419007 heartbeat IPC: 1.01818 cumulative IPC: 0.995366 (Simulation time: 0 hr 38 min 30 sec) 
 Total Blocks : 32768 Invalid Blocks : 0
Heartbeat CPU 0 instructions: 100000002 cycles: 100125079 heartbeat IPC: 1.03028 cumulative IPC: 0.998751 (Simulation time: 0 hr 43 min 2 sec) 
 Total Blocks : 32768 Invalid Blocks : 0
Heartbeat CPU 0 instructions: 110000000 cycles: 109864617 heartbeat IPC: 1.02674 cumulative IPC: 1.00123 (Simulation time: 0 hr 47 min 30 sec) 
 Total Blocks : 32768 Invalid Blocks : 0
Heartbeat CPU 0 instructions: 120000000 cycles: 119408404 heartbeat IPC: 1.0478 cumulative IPC: 1.00495 (Simulation time: 0 hr 51 min 56 sec) 
 Total Blocks : 32768 Invalid Blocks : 0
Heartbeat CPU 0 instructions: 130000001 cycles: 129102863 heartbeat IPC: 1.03152 cumulative IPC: 1.00695 (Simulation time: 0 hr 56 min 21 sec) 
 Total Blocks : 32768 Invalid Blocks : 0
Heartbeat CPU 0 instructions: 140000000 cycles: 138721399 heartbeat IPC: 1.03966 cumulative IPC: 1.00922 (Simulation time: 1 hr 1 min 5 sec) 
 Total Blocks : 32768 Invalid Blocks : 0
Heartbeat CPU 0 instructions: 150000000 cycles: 148342921 heartbeat IPC: 1.03934 cumulative IPC: 1.01117 (Simulation time: 1 hr 5 min 39 sec) 
 Total Blocks : 32768 Invalid Blocks : 0
Heartbeat CPU 0 instructions: 160000000 cycles: 157703516 heartbeat IPC: 1.06831 cumulative IPC: 1.01456 (Simulation time: 1 hr 10 min 21 sec) 
 Total Blocks : 32768 Invalid Blocks : 0
Heartbeat CPU 0 instructions: 170000000 cycles: 166900612 heartbeat IPC: 1.0873 cumulative IPC: 1.01857 (Simulation time: 1 hr 14 min 50 sec) 
 Total Blocks : 32768 Invalid Blocks : 0
Heartbeat CPU 0 instructions: 180000003 cycles: 175911482 heartbeat IPC: 1.10977 cumulative IPC: 1.02324 (Simulation time: 1 hr 18 min 58 sec) 
 Total Blocks : 32768 Invalid Blocks : 0
Heartbeat CPU 0 instructions: 190000002 cycles: 184868402 heartbeat IPC: 1.11646 cumulative IPC: 1.02776 (Simulation time: 1 hr 22 min 51 sec) 
 Total Blocks : 32768 Invalid Blocks : 0
Heartbeat CPU 0 instructions: 200000002 cycles: 193786969 heartbeat IPC: 1.12126 cumulative IPC: 1.03206 (Simulation time: 1 hr 27 min 5 sec) 
 Total Blocks : 32768 Invalid Blocks : 0

Warmup complete CPU 0 instructions: 200000002 cycles: 193786969 (Simulation time: 1 hr 27 min 5 sec) 

Heartbeat CPU 0 instructions: 210000002 cycles: 268689121 heartbeat IPC: 0.133508 cumulative IPC: 0.133508 (Simulation time: 1 hr 38 min 11 sec) 
 Total Blocks : 32768 Invalid Blocks : 0
Heartbeat CPU 0 instructions: 220000000 cycles: 343564699 heartbeat IPC: 0.133555 cumulative IPC: 0.133531 (Simulation time: 1 hr 49 min 9 sec) 
 Total Blocks : 32768 Invalid Blocks : 0
Heartbeat CPU 0 instructions: 230000000 cycles: 418515510 heartbeat IPC: 0.133421 cumulative IPC: 0.133494 (Simulation time: 2 hr 0 min 5 sec) 
 Total Blocks : 32768 Invalid Blocks : 0
Heartbeat CPU 0 instructions: 240000001 cycles: 493324888 heartbeat IPC: 0.133673 cumulative IPC: 0.133539 (Simulation time: 2 hr 11 min 11 sec) 
 Total Blocks : 32768 Invalid Blocks : 0
Heartbeat CPU 0 instructions: 250000001 cycles: 568187339 heartbeat IPC: 0.133578 cumulative IPC: 0.133547 (Simulation time: 2 hr 22 min 37 sec) 
 Total Blocks : 32768 Invalid Blocks : 0
Heartbeat CPU 0 instructions: 260000000 cycles: 643107584 heartbeat IPC: 0.133475 cumulative IPC: 0.133535 (Simulation time: 2 hr 33 min 53 sec) 
 Total Blocks : 32768 Invalid Blocks : 0
Heartbeat CPU 0 instructions: 270000001 cycles: 717998512 heartbeat IPC: 0.133528 cumulative IPC: 0.133534 (Simulation time: 2 hr 44 min 29 sec) 
 Total Blocks : 32768 Invalid Blocks : 0
Heartbeat CPU 0 instructions: 280000003 cycles: 792879971 heartbeat IPC: 0.133544 cumulative IPC: 0.133535 (Simulation time: 2 hr 55 min 7 sec) 
 Total Blocks : 32768 Invalid Blocks : 0
Heartbeat CPU 0 instructions: 290000000 cycles: 867643431 heartbeat IPC: 0.133755 cumulative IPC: 0.13356 (Simulation time: 3 hr 5 min 20 sec) 
 Total Blocks : 32768 Invalid Blocks : 0
Heartbeat CPU 0 instructions: 300000001 cycles: 942586498 heartbeat IPC: 0.133435 cumulative IPC: 0.133547 (Simulation time: 3 hr 15 min 14 sec) 
 Total Blocks : 32768 Invalid Blocks : 0
Heartbeat CPU 0 instructions: 310000002 cycles: 1017388032 heartbeat IPC: 0.133687 cumulative IPC: 0.13356 (Simulation time: 3 hr 25 min 10 sec) 
 Total Blocks : 32768 Invalid Blocks : 0
Heartbeat CPU 0 instructions: 320000000 cycles: 1092336726 heartbeat IPC: 0.133425 cumulative IPC: 0.133549 (Simulation time: 3 hr 34 min 34 sec) 
 Total Blocks : 32768 Invalid Blocks : 0
Heartbeat CPU 0 instructions: 330000000 cycles: 1170822249 heartbeat IPC: 0.127412 cumulative IPC: 0.133056 (Simulation time: 3 hr 43 min 10 sec) 
 Total Blocks : 32768 Invalid Blocks : 0
Heartbeat CPU 0 instructions: 340000002 cycles: 1251950966 heartbeat IPC: 0.123261 cumulative IPC: 0.132305 (Simulation time: 3 hr 51 min 29 sec) 
 Total Blocks : 32768 Invalid Blocks : 0
Heartbeat CPU 0 instructions: 350000001 cycles: 1333613313 heartbeat IPC: 0.122455 cumulative IPC: 0.131599 (Simulation time: 3 hr 59 min 59 sec) 
 Total Blocks : 32768 Invalid Blocks : 0
Heartbeat CPU 0 instructions: 360000000 cycles: 1405420228 heartbeat IPC: 0.139262 cumulative IPC: 0.132053 (Simulation time: 4 hr 8 min 19 sec) 
 Total Blocks : 32768 Invalid Blocks : 0
Heartbeat CPU 0 instructions: 370000000 cycles: 1453218882 heartbeat IPC: 0.209211 cumulative IPC: 0.134981 (Simulation time: 4 hr 17 min 11 sec) 
 Total Blocks : 32768 Invalid Blocks : 0
Heartbeat CPU 0 instructions: 380000000 cycles: 1503522410 heartbeat IPC: 0.198793 cumulative IPC: 0.137432 (Simulation time: 4 hr 25 min 43 sec) 
 Total Blocks : 32768 Invalid Blocks : 0
Heartbeat CPU 0 instructions: 390000001 cycles: 1560050044 heartbeat IPC: 0.176905 cumulative IPC: 0.139065 (Simulation time: 4 hr 33 min 27 sec) 
 Total Blocks : 32768 Invalid Blocks : 0
Heartbeat CPU 0 instructions: 400000001 cycles: 1623897358 heartbeat IPC: 0.156624 cumulative IPC: 0.139849 (Simulation time: 4 hr 41 min 15 sec) 
 Total Blocks : 32768 Invalid Blocks : 0
Finished CPU 0 instructions: 200000003 cycles: 1430110391 cumulative IPC: 0.139849 (Simulation time: 4 hr 41 min 15 sec) 

CPU 0 Branch Prediction Accuracy: 93.7169% MPKI: 14.5239 Average ROB Occupancy at Mispredict: 67.0404

ChampSim completed all CPUs

Region of Interest Statistics

CPU 0 cumulative IPC: 0.139849 instructions: 200000003 cycles: 1430110391
ITLB TOTAL     ACCESS: 29563842  HIT: 29563842  MISS:     0  HIT %:   100  MISS %:     0  AVERAGE MISS PENALTY: 0
ITLB LOAD      ACCESS: 29563842  HIT: 29563842  MISS:     0  HIT %:   100  MISS %:     0  AVERAGE MISS PENALTY: 0
ITLB RFO       ACCESS:     0  HIT:     0  MISS:     0  HIT %:     0  MISS %:     0  AVERAGE MISS PENALTY: 0
ITLB PREFETCH  ACCESS:     0  HIT:     0  MISS:     0  HIT %:     0  MISS %:     0  AVERAGE MISS PENALTY: 0
ITLB WRITEBACK ACCESS:     0  HIT:     0  MISS:     0  HIT %:     0  MISS %:     0  AVERAGE MISS PENALTY: 0
ITLB PREFETCH  REQUESTED:     0  ISSUED:     0  USEFUL:     0  USELESS:     0
 USEFUL LOAD PREFETCHES:          0 PREFETCH ISSUED TO LOWER LEVEL:          0  ACCURACY: -nan
 TIMELY PREFETCHES:          0 LATE PREFETCHES: 0 DROPPED PREFETCHES: 0
ITLB AVERAGE MISS LATENCY: -nan cycles
DTLB TOTAL     ACCESS: 42328979  HIT: 27388535  MISS: 14940444  HIT %: 64.704  MISS %: 35.296  AVERAGE MISS PENALTY: 31.3894
DTLB LOAD      ACCESS: 37574827  HIT: 24763874  MISS: 12810953  HIT %: 65.9055  MISS %: 34.0945  AVERAGE MISS PENALTY: 25.3958
DTLB RFO       ACCESS: 4754152  HIT: 2624661  MISS: 2129491  HIT %: 55.2078  MISS %: 44.7922  AVERAGE MISS PENALTY: 67.447
DTLB PREFETCH  ACCESS:     0  HIT:     0  MISS:     0  HIT %:     0  MISS %:     0  AVERAGE MISS PENALTY: 0
DTLB WRITEBACK ACCESS:     0  HIT:     0  MISS:     0  HIT %:     0  MISS %:     0  AVERAGE MISS PENALTY: 0
DTLB PREFETCH  REQUESTED:     0  ISSUED:     0  USEFUL:     0  USELESS:     0
 USEFUL LOAD PREFETCHES:          0 PREFETCH ISSUED TO LOWER LEVEL:          0  ACCURACY: -nan
 TIMELY PREFETCHES:          0 LATE PREFETCHES: 0 DROPPED PREFETCHES: 0
DTLB AVERAGE MISS LATENCY: 31.3894 cycles
STLB TOTAL     ACCESS: 14940444  HIT: 13113879  MISS: 1826565  HIT %: 87.7744  MISS %: 12.2256  AVERAGE MISS PENALTY: 100
STLB LOAD      ACCESS: 12810953  HIT: 12058951  MISS: 752002  HIT %: 94.13  MISS %: 5.86999  AVERAGE MISS PENALTY: 100
STLB RFO       ACCESS: 2129491  HIT: 1054928  MISS: 1074563  HIT %: 49.539  MISS %: 50.461  AVERAGE MISS PENALTY: 100
STLB PREFETCH  ACCESS:     0  HIT:     0  MISS:     0  HIT %:     0  MISS %:     0  AVERAGE MISS PENALTY: 0
STLB WRITEBACK ACCESS:     0  HIT:     0  MISS:     0  HIT %:     0  MISS %:     0  AVERAGE MISS PENALTY: 0
STLB PREFETCH  REQUESTED:     0  ISSUED:     0  USEFUL:     0  USELESS:     0
 USEFUL LOAD PREFETCHES:          0 PREFETCH ISSUED TO LOWER LEVEL:          0  ACCURACY: -nan
 TIMELY PREFETCHES:          0 LATE PREFETCHES: 0 DROPPED PREFETCHES: 0
STLB AVERAGE MISS LATENCY: 100 cycles
L1D TOTAL     ACCESS: 41616266  HIT: 23562835  MISS: 18053431  HIT %: 56.6193  MISS %: 43.3807  AVERAGE MISS PENALTY: 153.004
L1D LOAD      ACCESS: 36767818  HIT: 18728354  MISS: 18039464  HIT %: 50.9368  MISS %: 49.0632  AVERAGE MISS PENALTY: 152.956
L1D RFO       ACCESS: 4848448  HIT: 4834481  MISS: 13967  HIT %: 99.7119  MISS %: 0.288072  AVERAGE MISS PENALTY: 214.695
L1D PREFETCH  ACCESS:     0  HIT:     0  MISS:     0  HIT %:     0  MISS %:     0  AVERAGE MISS PENALTY: 0
L1D WRITEBACK ACCESS:     0  HIT:     0  MISS:     0  HIT %:     0  MISS %:     0  AVERAGE MISS PENALTY: 0
L1D PREFETCH  REQUESTED:     0  ISSUED:     0  USEFUL:     0  USELESS:     0
 USEFUL LOAD PREFETCHES:          0 PREFETCH ISSUED TO LOWER LEVEL:          0  ACCURACY: -nan
 TIMELY PREFETCHES:          0 LATE PREFETCHES: 0 DROPPED PREFETCHES: 0
L1D AVERAGE MISS LATENCY: 142.27 cycles
L1I TOTAL     ACCESS: 45270505  HIT: 45270505  MISS:     0  HIT %:   100  MISS %:     0  AVERAGE MISS PENALTY: 0
L1I LOAD      ACCESS: 45270505  HIT: 45270505  MISS:     0  HIT %:   100  MISS %:     0  AVERAGE MISS PENALTY: 0
L1I RFO       ACCESS:     0  HIT:     0  MISS:     0  HIT %:     0  MISS %:     0  AVERAGE MISS PENALTY: 0
L1I PREFETCH  ACCESS:     0  HIT:     0  MISS:     0  HIT %:     0  MISS %:     0  AVERAGE MISS PENALTY: 0
L1I WRITEBACK ACCESS:     0  HIT:     0  MISS:     0  HIT %:     0  MISS %:     0  AVERAGE MISS PENALTY: 0
L1I PREFETCH  REQUESTED:     0  ISSUED:     0  USEFUL:     0  USELESS:     0
 USEFUL LOAD PREFETCHES:          0 PREFETCH ISSUED TO LOWER LEVEL:          0  ACCURACY: -nan
 TIMELY PREFETCHES:          0 LATE PREFETCHES: 0 DROPPED PREFETCHES: 0
L1I AVERAGE MISS LATENCY: -nan cycles
L2C TOTAL     ACCESS: 20468928  HIT: 6773037  MISS: 13695891  HIT %: 33.0894  MISS %: 66.9106  AVERAGE MISS PENALTY: 176.097
L2C LOAD      ACCESS: 18039463  HIT: 4354696  MISS: 13684767  HIT %: 24.1398  MISS %: 75.8602  AVERAGE MISS PENALTY: 176.037
L2C RFO       ACCESS: 13967  HIT:  3517  MISS: 10450  HIT %: 25.1808  MISS %: 74.8192  AVERAGE MISS PENALTY: 264.929
L2C PREFETCH  ACCESS:     0  HIT:     0  MISS:     0  HIT %:     0  MISS %:     0  AVERAGE MISS PENALTY: 0
L2C WRITEBACK ACCESS: 2415498  HIT: 2414824  MISS:   674  HIT %: 99.9721  MISS %: 0.0279031  AVERAGE MISS PENALTY: 0
L2C PREFETCH  REQUESTED:     0  ISSUED:     0  USEFUL:     0  USELESS:     0
 USEFUL LOAD PREFETCHES:          0 PREFETCH ISSUED TO LOWER LEVEL:          0  ACCURACY: -nan
 TIMELY PREFETCHES:          0 LATE PREFETCHES: 0 DROPPED PREFETCHES: 0
L2C AVERAGE MISS LATENCY: 161.947 cycles
LLC0 TOTAL     ACCESS: 16039050  HIT: 6700193  MISS: 9338857  HIT %: 41.7743  MISS %: 58.2257  AVERAGE MISS PENALTY: 201.099
LLC0 LOAD      ACCESS: 13684765  HIT: 4695178  MISS: 8989587  HIT %: 34.3095  MISS %: 65.6905  AVERAGE MISS PENALTY: 208.654
LLC0 RFO       ACCESS: 10450  HIT:    98  MISS: 10352  HIT %: 0.937799  MISS %: 99.0622  AVERAGE MISS PENALTY: 224.567
LLC0 PREFETCH  ACCESS:     0  HIT:     0  MISS:     0  HIT %:     0  MISS %:     0  AVERAGE MISS PENALTY: 0
LLC0 WRITEBACK ACCESS: 2343835  HIT: 2004917  MISS: 338918  HIT %: 85.54  MISS %: 14.46  AVERAGE MISS PENALTY: 0
LLC0 PREFETCH  REQUESTED:     0  ISSUED:     0  USEFUL:     0  USELESS:     0
 USEFUL LOAD PREFETCHES:          0 PREFETCH ISSUED TO LOWER LEVEL:          0  ACCURACY: -nan
 TIMELY PREFETCHES:          0 LATE PREFETCHES: 0 DROPPED PREFETCHES: 0
LLC0 AVERAGE MISS LATENCY: 180.348 cycles
Deadblocks : 6633374 Deadblock percentage : 73.7895

ROI Average ROB Stall Cycles:	22.8754
ROI Total ROB Stalls Cycles:	1360049879
ROI TOTAL ROB counter      :	59454709
ROI Average Load ROB Stall Cycles:	145.134
ROI Total Load ROB Stalls Cycle  :	949827150
ROI Total Load ROB stalls Counter:	6544502
Major fault: 0 Minor fault: 37418
Interconnect Stats 
LINK 0 BW : 0
DRAM Statistics
 CHANNEL 0
 RQ ROW_BUFFER_HIT: 769620  ROW_BUFFER_MISS: 8230310
 DBUS_CONGESTED: 2607218
 WQ ROW_BUFFER_HIT: 570427  ROW_BUFFER_MISS: 1463273  FULL:     0

 AVG_CONGESTED_CYCLE: 5
DRAM PAGES: 1048576
Allocated PAGES: 37418
L2C destructor called
L1D destructor called
L1I destructor called
STLB destructor called
DTLB destructor called
ITLB destructor called
