
*** ChampSim Multicore Out-of-Order Simulator ***

Warmup Instructions: 200000000
Simulation Instructions: 200000000
Number of CPUs: 1
threads:1

L1I Configuration:
L1I_SET:64
L1I_WAY:8
L1I_RQ_SIZE:64
L1I_WQ_SIZE:64
L1I_PQ_SIZE:8
L1I_MSHR_SIZE:8

L1D Configuration:
L1D_SET:64
L1D_WAY:12
L1D_RQ_SIZE:64
L1D_WQ_SIZE:64
L1D_PQ_SIZE:8
L1D_MSHR_SIZE:16

L2C Configuration:
L2C_SET:1024
L2C_WAY:8
L2C_RQ_SIZE:32
L2C_WQ_SIZE:32
L2C_PQ_SIZE:16
L2C_MSHR_SIZE:32

LLC Configuration:
LLC_SET:4096
LLC_WAY:16
LLC SLICES:8
LLC_RQ_SIZE:64
LLC_WQ_SIZE:64
LLC_PQ_SIZE:32
LLC_MSHR_SIZE:64

Interconnect OFF
Attacker deprioritize is: OFF
Off-chip DRAM Size: 4096 MB Channels: 1 Width: 64-bit Data Rate: 3200 MT/s
PAGE SIZE in KB: 4.000000 
PAGE SIZE in MB: 0.003906 
PAGE offset in bits: 12 
CEASER-S_LLC:0
MIRAGE : 1
CEASER_LATENCY:3
REMAP : OFF
Partitions : 1
Multi-Step : OFF
BFS : OFF

CPU 0 runs /home/anubhav/spec_2017/602.gcc_s-1850B.champsimtrace.xz
CPU 0 Bimodal branch predictor
Initialize Hawkeye state
Initialize Hawkeye state
Initialize Hawkeye state
Initialize Hawkeye state
Initialize Hawkeye state
Initialize Hawkeye state
Initialize Hawkeye state
Initialize Hawkeye state
Heartbeat CPU 0 instructions: 10000001 cycles: 9673707 heartbeat IPC: 1.03373 cumulative IPC: 1.03373 (Simulation time: 0 hr 1 min 31 sec) 
 Total Blocks : 524288 Invalid Blocks : 369088
Heartbeat CPU 0 instructions: 20000003 cycles: 19343384 heartbeat IPC: 1.03416 cumulative IPC: 1.03395 (Simulation time: 0 hr 3 min 23 sec) 
 Total Blocks : 524288 Invalid Blocks : 260124
Heartbeat CPU 0 instructions: 30000003 cycles: 29015747 heartbeat IPC: 1.03387 cumulative IPC: 1.03392 (Simulation time: 0 hr 5 min 59 sec) 
 Total Blocks : 524288 Invalid Blocks : 183687
Heartbeat CPU 0 instructions: 40000003 cycles: 38686314 heartbeat IPC: 1.03407 cumulative IPC: 1.03396 (Simulation time: 0 hr 9 min 13 sec) 
 Total Blocks : 524288 Invalid Blocks : 129497
Heartbeat CPU 0 instructions: 50000003 cycles: 48356789 heartbeat IPC: 1.03408 cumulative IPC: 1.03398 (Simulation time: 0 hr 12 min 23 sec) 
 Total Blocks : 524288 Invalid Blocks : 91404
Heartbeat CPU 0 instructions: 60000002 cycles: 58029158 heartbeat IPC: 1.03387 cumulative IPC: 1.03396 (Simulation time: 0 hr 15 min 57 sec) 
 Total Blocks : 524288 Invalid Blocks : 64272
Heartbeat CPU 0 instructions: 70000001 cycles: 67698612 heartbeat IPC: 1.03418 cumulative IPC: 1.03399 (Simulation time: 0 hr 19 min 49 sec) 
 Total Blocks : 524288 Invalid Blocks : 45405
Heartbeat CPU 0 instructions: 80000002 cycles: 77370471 heartbeat IPC: 1.03393 cumulative IPC: 1.03399 (Simulation time: 0 hr 23 min 45 sec) 
 Total Blocks : 524288 Invalid Blocks : 32083
Heartbeat CPU 0 instructions: 90000000 cycles: 87042168 heartbeat IPC: 1.03394 cumulative IPC: 1.03398 (Simulation time: 0 hr 27 min 42 sec) 
 Total Blocks : 524288 Invalid Blocks : 22732
Heartbeat CPU 0 instructions: 100000000 cycles: 96713953 heartbeat IPC: 1.03394 cumulative IPC: 1.03398 (Simulation time: 0 hr 31 min 48 sec) 
 Total Blocks : 524288 Invalid Blocks : 16096
Heartbeat CPU 0 instructions: 110000000 cycles: 106385469 heartbeat IPC: 1.03396 cumulative IPC: 1.03398 (Simulation time: 0 hr 36 min 8 sec) 
 Total Blocks : 524288 Invalid Blocks : 11289
Heartbeat CPU 0 instructions: 120000002 cycles: 116056611 heartbeat IPC: 1.034 cumulative IPC: 1.03398 (Simulation time: 0 hr 40 min 50 sec) 
 Total Blocks : 524288 Invalid Blocks : 7943
Heartbeat CPU 0 instructions: 130000002 cycles: 125729363 heartbeat IPC: 1.03383 cumulative IPC: 1.03397 (Simulation time: 0 hr 45 min 30 sec) 
 Total Blocks : 524288 Invalid Blocks : 5569
Heartbeat CPU 0 instructions: 140000002 cycles: 135398707 heartbeat IPC: 1.0342 cumulative IPC: 1.03398 (Simulation time: 0 hr 50 min 11 sec) 
 Total Blocks : 524288 Invalid Blocks : 3971
Heartbeat CPU 0 instructions: 150000000 cycles: 145068514 heartbeat IPC: 1.03415 cumulative IPC: 1.03399 (Simulation time: 0 hr 55 min 7 sec) 
 Total Blocks : 524288 Invalid Blocks : 2831
Heartbeat CPU 0 instructions: 160000003 cycles: 154739010 heartbeat IPC: 1.03407 cumulative IPC: 1.034 (Simulation time: 1 hr 0 min 31 sec) 
 Total Blocks : 524288 Invalid Blocks : 2005
Heartbeat CPU 0 instructions: 170000000 cycles: 164410736 heartbeat IPC: 1.03394 cumulative IPC: 1.034 (Simulation time: 1 hr 5 min 55 sec) 
 Total Blocks : 524288 Invalid Blocks : 1394
Heartbeat CPU 0 instructions: 180000000 cycles: 174082283 heartbeat IPC: 1.03396 cumulative IPC: 1.03399 (Simulation time: 1 hr 11 min 28 sec) 
 Total Blocks : 524288 Invalid Blocks : 954
Heartbeat CPU 0 instructions: 190000002 cycles: 183753621 heartbeat IPC: 1.03398 cumulative IPC: 1.03399 (Simulation time: 1 hr 17 min 22 sec) 
 Total Blocks : 524288 Invalid Blocks : 660
Heartbeat CPU 0 instructions: 200000003 cycles: 193425698 heartbeat IPC: 1.0339 cumulative IPC: 1.03399 (Simulation time: 1 hr 23 min 8 sec) 
 Total Blocks : 524288 Invalid Blocks : 467

Warmup complete CPU 0 instructions: 200000003 cycles: 193425698 (Simulation time: 1 hr 23 min 8 sec) 

Heartbeat CPU 0 instructions: 210000001 cycles: 221961369 heartbeat IPC: 0.350439 cumulative IPC: 0.350439 (Simulation time: 1 hr 32 min 18 sec) 
 Total Blocks : 524288 Invalid Blocks : 335
Heartbeat CPU 0 instructions: 220000000 cycles: 250524625 heartbeat IPC: 0.3501 cumulative IPC: 0.350269 (Simulation time: 1 hr 41 min 23 sec) 
 Total Blocks : 524288 Invalid Blocks : 243
Heartbeat CPU 0 instructions: 230000002 cycles: 279062731 heartbeat IPC: 0.350409 cumulative IPC: 0.350316 (Simulation time: 1 hr 50 min 33 sec) 
 Total Blocks : 524288 Invalid Blocks : 166
Heartbeat CPU 0 instructions: 240000001 cycles: 307576621 heartbeat IPC: 0.350706 cumulative IPC: 0.350413 (Simulation time: 1 hr 59 min 9 sec) 
 Total Blocks : 524288 Invalid Blocks : 109
Heartbeat CPU 0 instructions: 250000003 cycles: 336111280 heartbeat IPC: 0.350451 cumulative IPC: 0.350421 (Simulation time: 2 hr 7 min 57 sec) 
 Total Blocks : 524288 Invalid Blocks : 84
Heartbeat CPU 0 instructions: 260000000 cycles: 364653659 heartbeat IPC: 0.350356 cumulative IPC: 0.35041 (Simulation time: 2 hr 16 min 52 sec) 
 Total Blocks : 524288 Invalid Blocks : 67
Heartbeat CPU 0 instructions: 270000001 cycles: 393218073 heartbeat IPC: 0.350086 cumulative IPC: 0.350364 (Simulation time: 2 hr 25 min 56 sec) 
 Total Blocks : 524288 Invalid Blocks : 49
Heartbeat CPU 0 instructions: 280000000 cycles: 421742703 heartbeat IPC: 0.350574 cumulative IPC: 0.35039 (Simulation time: 2 hr 34 min 30 sec) 
 Total Blocks : 524288 Invalid Blocks : 36
Heartbeat CPU 0 instructions: 290000001 cycles: 450244318 heartbeat IPC: 0.350857 cumulative IPC: 0.350442 (Simulation time: 2 hr 42 min 1 sec) 
 Total Blocks : 524288 Invalid Blocks : 26
Heartbeat CPU 0 instructions: 300000000 cycles: 478737412 heartbeat IPC: 0.350962 cumulative IPC: 0.350494 (Simulation time: 2 hr 49 min 12 sec) 
 Total Blocks : 524288 Invalid Blocks : 19
Heartbeat CPU 0 instructions: 310000001 cycles: 507272214 heartbeat IPC: 0.350449 cumulative IPC: 0.35049 (Simulation time: 2 hr 57 min 2 sec) 
 Total Blocks : 524288 Invalid Blocks : 11
Heartbeat CPU 0 instructions: 320000000 cycles: 535823796 heartbeat IPC: 0.350243 cumulative IPC: 0.350469 (Simulation time: 3 hr 4 min 10 sec) 
 Total Blocks : 524288 Invalid Blocks : 7
Heartbeat CPU 0 instructions: 330000000 cycles: 564341086 heartbeat IPC: 0.350664 cumulative IPC: 0.350484 (Simulation time: 3 hr 10 min 43 sec) 
 Total Blocks : 524288 Invalid Blocks : 4
Heartbeat CPU 0 instructions: 340000003 cycles: 592839519 heartbeat IPC: 0.350897 cumulative IPC: 0.350514 (Simulation time: 3 hr 16 min 41 sec) 
 Total Blocks : 524288 Invalid Blocks : 2
Heartbeat CPU 0 instructions: 350000000 cycles: 621321157 heartbeat IPC: 0.351103 cumulative IPC: 0.350553 (Simulation time: 3 hr 21 min 8 sec) 
 Total Blocks : 524288 Invalid Blocks : 1
Heartbeat CPU 0 instructions: 360000003 cycles: 649827989 heartbeat IPC: 0.350793 cumulative IPC: 0.350568 (Simulation time: 3 hr 25 min 39 sec) 
 Total Blocks : 524288 Invalid Blocks : 1
Heartbeat CPU 0 instructions: 370000001 cycles: 678325089 heartbeat IPC: 0.350913 cumulative IPC: 0.350588 (Simulation time: 3 hr 30 min 14 sec) 
 Total Blocks : 524288 Invalid Blocks : 1
Heartbeat CPU 0 instructions: 380000000 cycles: 706897327 heartbeat IPC: 0.34999 cumulative IPC: 0.350555 (Simulation time: 3 hr 35 min 4 sec) 
 Total Blocks : 524288 Invalid Blocks : 0
Heartbeat CPU 0 instructions: 390000000 cycles: 735450338 heartbeat IPC: 0.350226 cumulative IPC: 0.350538 (Simulation time: 3 hr 39 min 56 sec) 
 Total Blocks : 524288 Invalid Blocks : 0
Heartbeat CPU 0 instructions: 400000000 cycles: 763995573 heartbeat IPC: 0.350321 cumulative IPC: 0.350527 (Simulation time: 3 hr 44 min 47 sec) 
 Total Blocks : 524288 Invalid Blocks : 0
Finished CPU 0 instructions: 200000003 cycles: 570569902 cumulative IPC: 0.350527 (Simulation time: 3 hr 44 min 47 sec) 

CPU 0 Branch Prediction Accuracy: 91.5536% MPKI: 19.8325 Average ROB Occupancy at Mispredict: 61.8358

ChampSim completed all CPUs

Region of Interest Statistics

CPU 0 cumulative IPC: 0.350527 instructions: 200000003 cycles: 570569902
ITLB TOTAL     ACCESS: 22896423  HIT: 22896423  MISS:     0  HIT %:   100  MISS %:     0  AVERAGE MISS PENALTY: 0
ITLB LOAD      ACCESS: 22896423  HIT: 22896423  MISS:     0  HIT %:   100  MISS %:     0  AVERAGE MISS PENALTY: 0
ITLB RFO       ACCESS:     0  HIT:     0  MISS:     0  HIT %:     0  MISS %:     0  AVERAGE MISS PENALTY: 0
ITLB PREFETCH  ACCESS:     0  HIT:     0  MISS:     0  HIT %:     0  MISS %:     0  AVERAGE MISS PENALTY: 0
ITLB WRITEBACK ACCESS:     0  HIT:     0  MISS:     0  HIT %:     0  MISS %:     0  AVERAGE MISS PENALTY: 0
ITLB PREFETCH  REQUESTED:     0  ISSUED:     0  USEFUL:     0  USELESS:     0
 USEFUL LOAD PREFETCHES:          0 PREFETCH ISSUED TO LOWER LEVEL:          0  ACCURACY: -nan
 TIMELY PREFETCHES:          0 LATE PREFETCHES: 0 DROPPED PREFETCHES: 0
ITLB AVERAGE MISS LATENCY: -nan cycles
DTLB TOTAL     ACCESS: 63253899  HIT: 63187101  MISS: 66798  HIT %: 99.8944  MISS %: 0.105603  AVERAGE MISS PENALTY: 100.785
DTLB LOAD      ACCESS: 43842419  HIT: 43775647  MISS: 66772  HIT %: 99.8477  MISS %: 0.1523  AVERAGE MISS PENALTY: 100.782
DTLB RFO       ACCESS: 19411480  HIT: 19411454  MISS:    26  HIT %: 99.9999  MISS %: 0.000133941  AVERAGE MISS PENALTY: 109
DTLB PREFETCH  ACCESS:     0  HIT:     0  MISS:     0  HIT %:     0  MISS %:     0  AVERAGE MISS PENALTY: 0
DTLB WRITEBACK ACCESS:     0  HIT:     0  MISS:     0  HIT %:     0  MISS %:     0  AVERAGE MISS PENALTY: 0
DTLB PREFETCH  REQUESTED:     0  ISSUED:     0  USEFUL:     0  USELESS:     0
 USEFUL LOAD PREFETCHES:          0 PREFETCH ISSUED TO LOWER LEVEL:          0  ACCURACY: -nan
 TIMELY PREFETCHES:          0 LATE PREFETCHES: 0 DROPPED PREFETCHES: 0
DTLB AVERAGE MISS LATENCY: 100.786 cycles
STLB TOTAL     ACCESS: 66798  HIT:  5492  MISS: 61306  HIT %: 8.2218  MISS %: 91.7782  AVERAGE MISS PENALTY: 100
STLB LOAD      ACCESS: 66772  HIT:  5492  MISS: 61280  HIT %: 8.225  MISS %: 91.775  AVERAGE MISS PENALTY: 100
STLB RFO       ACCESS:    26  HIT:     0  MISS:    26  HIT %:     0  MISS %:   100  AVERAGE MISS PENALTY: 100
STLB PREFETCH  ACCESS:     0  HIT:     0  MISS:     0  HIT %:     0  MISS %:     0  AVERAGE MISS PENALTY: 0
STLB WRITEBACK ACCESS:     0  HIT:     0  MISS:     0  HIT %:     0  MISS %:     0  AVERAGE MISS PENALTY: 0
STLB PREFETCH  REQUESTED:     0  ISSUED:     0  USEFUL:     0  USELESS:     0
 USEFUL LOAD PREFETCHES:          0 PREFETCH ISSUED TO LOWER LEVEL:          0  ACCURACY: -nan
 TIMELY PREFETCHES:          0 LATE PREFETCHES: 0 DROPPED PREFETCHES: 0
STLB AVERAGE MISS LATENCY: 100 cycles
L1D TOTAL     ACCESS: 146193858  HIT: 140796240  MISS: 5397618  HIT %: 96.3079  MISS %: 3.6921  AVERAGE MISS PENALTY: 2.63338e+06
L1D LOAD      ACCESS: 41879188  HIT: 41460848  MISS: 418340  HIT %: 99.0011  MISS %: 0.998921  AVERAGE MISS PENALTY: 3.39517e+07
L1D RFO       ACCESS: 19411479  HIT: 19410556  MISS:   923  HIT %: 99.9952  MISS %: 0.00475492  AVERAGE MISS PENALTY: 1.12957e+07
L1D PREFETCH  ACCESS: 84903191  HIT: 79924836  MISS: 4978355  HIT %: 94.1364  MISS %: 5.86357  AVERAGE MISS PENALTY: 35.284
L1D WRITEBACK ACCESS:     0  HIT:     0  MISS:     0  HIT %:     0  MISS %:     0  AVERAGE MISS PENALTY: 0
L1D PREFETCH  REQUESTED: 94578502  ISSUED: 91318993  USEFUL: 4478043  USELESS: 500321
 USEFUL LOAD PREFETCHES:    4478043 PREFETCH ISSUED TO LOWER LEVEL:    7474130  ACCURACY: 59.9139
 TIMELY PREFETCHES:    4478043 LATE PREFETCHES: 57269 DROPPED PREFETCHES: 3259509
L1D AVERAGE MISS LATENCY: 1967.06 cycles
L1I TOTAL     ACCESS: 32505595  HIT: 32505595  MISS:     0  HIT %:   100  MISS %:     0  AVERAGE MISS PENALTY: 0
L1I LOAD      ACCESS: 32505595  HIT: 32505595  MISS:     0  HIT %:   100  MISS %:     0  AVERAGE MISS PENALTY: 0
L1I RFO       ACCESS:     0  HIT:     0  MISS:     0  HIT %:     0  MISS %:     0  AVERAGE MISS PENALTY: 0
L1I PREFETCH  ACCESS:     0  HIT:     0  MISS:     0  HIT %:     0  MISS %:     0  AVERAGE MISS PENALTY: 0
L1I WRITEBACK ACCESS:     0  HIT:     0  MISS:     0  HIT %:     0  MISS %:     0  AVERAGE MISS PENALTY: 0
L1I PREFETCH  REQUESTED:     0  ISSUED:     0  USEFUL:     0  USELESS:     0
 USEFUL LOAD PREFETCHES:          0 PREFETCH ISSUED TO LOWER LEVEL:          0  ACCURACY: -nan
 TIMELY PREFETCHES:          0 LATE PREFETCHES: 0 DROPPED PREFETCHES: 0
L1I AVERAGE MISS LATENCY: -nan cycles
L2C TOTAL     ACCESS: 14749802  HIT: 11049000  MISS: 3700802  HIT %: 74.9095  MISS %: 25.0905  AVERAGE MISS PENALTY: 485733
L2C LOAD      ACCESS: 398004  HIT: 324473  MISS: 73531  HIT %: 81.5251  MISS %: 18.4749  AVERAGE MISS PENALTY: 2.44082e+07
L2C RFO       ACCESS:   899  HIT:   862  MISS:    37  HIT %: 95.8843  MISS %: 4.11568  AVERAGE MISS PENALTY: 6.41166e+07
L2C PREFETCH  ACCESS: 14338012  HIT: 10710778  MISS: 3627234  HIT %: 74.702  MISS %: 25.298  AVERAGE MISS PENALTY: 129.473
L2C WRITEBACK ACCESS: 12887  HIT: 12887  MISS:     0  HIT %:   100  MISS %:     0  AVERAGE MISS PENALTY: 0
L2C PREFETCH  REQUESTED: 13520088  ISSUED: 13508526  USEFUL: 22492  USELESS: 3604768
 USEFUL LOAD PREFETCHES:      22492 PREFETCH ISSUED TO LOWER LEVEL:    4897369  ACCURACY: 0.459267
 TIMELY PREFETCHES:      22492 LATE PREFETCHES: 4500 DROPPED PREFETCHES: 11562
L2C AVERAGE MISS LATENCY: 129.469 cycles
LLC0 TOTAL     ACCESS: 462900  HIT:  4133  MISS: 458767  HIT %: 0.892849  MISS %: 99.1072  AVERAGE MISS PENALTY: 92.9953
LLC0 LOAD      ACCESS: 56848  HIT:   151  MISS: 56697  HIT %: 0.265621  MISS %: 99.7344  AVERAGE MISS PENALTY: 90.6823
LLC0 RFO       ACCESS:    26  HIT:     0  MISS:    26  HIT %:     0  MISS %:   100  AVERAGE MISS PENALTY: 118.231
LLC0 PREFETCH  ACCESS: 405406  HIT:  3373  MISS: 402033  HIT %: 0.832005  MISS %: 99.168  AVERAGE MISS PENALTY: 93.3224
LLC0 WRITEBACK ACCESS:   620  HIT:   609  MISS:    11  HIT %: 98.2258  MISS %: 1.77419  AVERAGE MISS PENALTY: 0
LLC0 PREFETCH  REQUESTED:     0  ISSUED:     0  USEFUL:    95  USELESS: 402008
 USEFUL LOAD PREFETCHES:         95 PREFETCH ISSUED TO LOWER LEVEL:     402033  ACCURACY: 0.0236299
 TIMELY PREFETCHES:         95 LATE PREFETCHES: 0 DROPPED PREFETCHES: 0
LLC0 AVERAGE MISS LATENCY: 92.9953 cycles
Deadblocks : 56682 Deadblock percentage : 99.9735

LLC1 TOTAL     ACCESS: 463061  HIT:  4081  MISS: 458980  HIT %: 0.881309  MISS %: 99.1187  AVERAGE MISS PENALTY: 94.2904
LLC1 LOAD      ACCESS:  2181  HIT:   253  MISS:  1928  HIT %: 11.6002  MISS %: 88.3998  AVERAGE MISS PENALTY: 127.761
LLC1 RFO       ACCESS:     0  HIT:     0  MISS:     0  HIT %:     0  MISS %:     0  AVERAGE MISS PENALTY: 0
LLC1 PREFETCH  ACCESS: 460232  HIT:  3193  MISS: 457039  HIT %: 0.693781  MISS %: 99.3062  AVERAGE MISS PENALTY: 94.1519
LLC1 WRITEBACK ACCESS:   648  HIT:   635  MISS:    13  HIT %: 97.9938  MISS %: 2.00617  AVERAGE MISS PENALTY: 0
LLC1 PREFETCH  REQUESTED:     0  ISSUED:     0  USEFUL:    80  USELESS: 456986
 USEFUL LOAD PREFETCHES:         80 PREFETCH ISSUED TO LOWER LEVEL:     457039  ACCURACY: 0.017504
 TIMELY PREFETCHES:         80 LATE PREFETCHES: 0 DROPPED PREFETCHES: 0
LLC1 AVERAGE MISS LATENCY: 94.2904 cycles
LLC2 TOTAL     ACCESS: 463524  HIT:  4505  MISS: 459019  HIT %: 0.971902  MISS %: 99.0281  AVERAGE MISS PENALTY: 96.0708
LLC2 LOAD      ACCESS:  1645  HIT:   121  MISS:  1524  HIT %: 7.35562  MISS %: 92.6444  AVERAGE MISS PENALTY: 136.01
LLC2 RFO       ACCESS:     1  HIT:     0  MISS:     1  HIT %:     0  MISS %:   100  AVERAGE MISS PENALTY: 176
LLC2 PREFETCH  ACCESS: 461249  HIT:  3771  MISS: 457478  HIT %: 0.817563  MISS %: 99.1824  AVERAGE MISS PENALTY: 95.941
LLC2 WRITEBACK ACCESS:   629  HIT:   613  MISS:    16  HIT %: 97.4563  MISS %: 2.54372  AVERAGE MISS PENALTY: 0
LLC2 PREFETCH  REQUESTED:     0  ISSUED:     0  USEFUL:    83  USELESS: 457401
 USEFUL LOAD PREFETCHES:         83 PREFETCH ISSUED TO LOWER LEVEL:     457478  ACCURACY: 0.0181429
 TIMELY PREFETCHES:         83 LATE PREFETCHES: 0 DROPPED PREFETCHES: 0
LLC2 AVERAGE MISS LATENCY: 96.0708 cycles
LLC3 TOTAL     ACCESS: 463319  HIT:  4289  MISS: 459030  HIT %: 0.925712  MISS %: 99.0743  AVERAGE MISS PENALTY: 89.6021
LLC3 LOAD      ACCESS:  1900  HIT:   273  MISS:  1627  HIT %: 14.3684  MISS %: 85.6316  AVERAGE MISS PENALTY: 137.394
LLC3 RFO       ACCESS:     3  HIT:     0  MISS:     3  HIT %:     0  MISS %:   100  AVERAGE MISS PENALTY: 144.667
LLC3 PREFETCH  ACCESS: 460774  HIT:  3393  MISS: 457381  HIT %: 0.73637  MISS %: 99.2636  AVERAGE MISS PENALTY: 89.4355
LLC3 WRITEBACK ACCESS:   642  HIT:   623  MISS:    19  HIT %: 97.0405  MISS %: 2.9595  AVERAGE MISS PENALTY: 0
LLC3 PREFETCH  REQUESTED:     0  ISSUED:     0  USEFUL:    82  USELESS: 457305
 USEFUL LOAD PREFETCHES:         82 PREFETCH ISSUED TO LOWER LEVEL:     457381  ACCURACY: 0.0179282
 TIMELY PREFETCHES:         82 LATE PREFETCHES: 0 DROPPED PREFETCHES: 0
LLC3 AVERAGE MISS LATENCY: 89.6021 cycles
LLC4 TOTAL     ACCESS: 463303  HIT:  4232  MISS: 459071  HIT %: 0.913441  MISS %: 99.0866  AVERAGE MISS PENALTY: 90.3287
LLC4 LOAD      ACCESS:  1696  HIT:    98  MISS:  1598  HIT %: 5.7783  MISS %: 94.2217  AVERAGE MISS PENALTY: 138.546
LLC4 RFO       ACCESS:     1  HIT:     0  MISS:     1  HIT %:     0  MISS %:   100  AVERAGE MISS PENALTY: 178
LLC4 PREFETCH  ACCESS: 460968  HIT:  3514  MISS: 457454  HIT %: 0.762309  MISS %: 99.2377  AVERAGE MISS PENALTY: 90.1636
LLC4 WRITEBACK ACCESS:   638  HIT:   620  MISS:    18  HIT %: 97.1787  MISS %: 2.82132  AVERAGE MISS PENALTY: 0
LLC4 PREFETCH  REQUESTED:     0  ISSUED:     0  USEFUL:    69  USELESS: 457387
 USEFUL LOAD PREFETCHES:         69 PREFETCH ISSUED TO LOWER LEVEL:     457454  ACCURACY: 0.0150835
 TIMELY PREFETCHES:         69 LATE PREFETCHES: 0 DROPPED PREFETCHES: 0
LLC4 AVERAGE MISS LATENCY: 90.3287 cycles
LLC5 TOTAL     ACCESS: 463153  HIT:  4106  MISS: 459047  HIT %: 0.886532  MISS %: 99.1135  AVERAGE MISS PENALTY: 90.8089
LLC5 LOAD      ACCESS:  1783  HIT:   131  MISS:  1652  HIT %: 7.34717  MISS %: 92.6528  AVERAGE MISS PENALTY: 137.646
LLC5 RFO       ACCESS:     1  HIT:     0  MISS:     1  HIT %:     0  MISS %:   100  AVERAGE MISS PENALTY: 178
LLC5 PREFETCH  ACCESS: 460743  HIT:  3367  MISS: 457376  HIT %: 0.730776  MISS %: 99.2692  AVERAGE MISS PENALTY: 90.6431
LLC5 WRITEBACK ACCESS:   626  HIT:   608  MISS:    18  HIT %: 97.1246  MISS %: 2.8754  AVERAGE MISS PENALTY: 0
LLC5 PREFETCH  REQUESTED:     0  ISSUED:     0  USEFUL:    81  USELESS: 457311
 USEFUL LOAD PREFETCHES:         81 PREFETCH ISSUED TO LOWER LEVEL:     457376  ACCURACY: 0.0177097
 TIMELY PREFETCHES:         81 LATE PREFETCHES: 0 DROPPED PREFETCHES: 0
LLC5 AVERAGE MISS LATENCY: 90.8089 cycles
LLC6 TOTAL     ACCESS: 463341  HIT:  4400  MISS: 458941  HIT %: 0.949625  MISS %: 99.0504  AVERAGE MISS PENALTY: 91.7629
LLC6 LOAD      ACCESS:  1855  HIT:   212  MISS:  1643  HIT %: 11.4286  MISS %: 88.5714  AVERAGE MISS PENALTY: 137.881
LLC6 RFO       ACCESS:     0  HIT:     0  MISS:     0  HIT %:     0  MISS %:     0  AVERAGE MISS PENALTY: 0
LLC6 PREFETCH  ACCESS: 460822  HIT:  3543  MISS: 457279  HIT %: 0.768844  MISS %: 99.2312  AVERAGE MISS PENALTY: 91.6011
LLC6 WRITEBACK ACCESS:   664  HIT:   645  MISS:    19  HIT %: 97.1386  MISS %: 2.86145  AVERAGE MISS PENALTY: 0
LLC6 PREFETCH  REQUESTED:     0  ISSUED:     0  USEFUL:    82  USELESS: 457220
 USEFUL LOAD PREFETCHES:         82 PREFETCH ISSUED TO LOWER LEVEL:     457279  ACCURACY: 0.0179322
 TIMELY PREFETCHES:         82 LATE PREFETCHES: 0 DROPPED PREFETCHES: 0
LLC6 AVERAGE MISS LATENCY: 91.7629 cycles
LLC7 TOTAL     ACCESS: 463307  HIT:  4475  MISS: 458832  HIT %: 0.965882  MISS %: 99.0341  AVERAGE MISS PENALTY: 91.9987
LLC7 LOAD      ACCESS:  1901  HIT:   253  MISS:  1648  HIT %: 13.3088  MISS %: 86.6912  AVERAGE MISS PENALTY: 139.742
LLC7 RFO       ACCESS:     1  HIT:     0  MISS:     1  HIT %:     0  MISS %:   100  AVERAGE MISS PENALTY: 178
LLC7 PREFETCH  ACCESS: 460766  HIT:  3596  MISS: 457170  HIT %: 0.78044  MISS %: 99.2196  AVERAGE MISS PENALTY: 91.829
LLC7 WRITEBACK ACCESS:   639  HIT:   626  MISS:    13  HIT %: 97.9656  MISS %: 2.03443  AVERAGE MISS PENALTY: 0
LLC7 PREFETCH  REQUESTED:     0  ISSUED:     0  USEFUL:    81  USELESS: 457067
 USEFUL LOAD PREFETCHES:         81 PREFETCH ISSUED TO LOWER LEVEL:     457170  ACCURACY: 0.0177177
 TIMELY PREFETCHES:         81 LATE PREFETCHES: 0 DROPPED PREFETCHES: 0
LLC7 AVERAGE MISS LATENCY: 91.9987 cycles
ROI Average ROB Stall Cycles:	7.83755
ROI Total ROB Stalls Cycles:	493476753
ROI TOTAL ROB counter      :	62963125
ROI Average Load ROB Stall Cycles:	10.5204
ROI Total Load ROB Stalls Cycle  :	56957521
ROI Total Load ROB stalls Counter:	5413984
Major fault: 0 Minor fault: 121192

