
*** ChampSim Multicore Out-of-Order Simulator ***

Warmup Instructions: 200000000
Simulation Instructions: 200000000
Number of CPUs: 1
threads:1

L1I Configuration:
L1I_SET:64
L1I_WAY:8
L1I_RQ_SIZE:64
L1I_WQ_SIZE:64
L1I_PQ_SIZE:8
L1I_MSHR_SIZE:8

L1D Configuration:
L1D_SET:64
L1D_WAY:12
L1D_RQ_SIZE:64
L1D_WQ_SIZE:64
L1D_PQ_SIZE:8
L1D_MSHR_SIZE:16

L2C Configuration:
L2C_SET:1024
L2C_WAY:8
L2C_RQ_SIZE:32
L2C_WQ_SIZE:32
L2C_PQ_SIZE:16
L2C_MSHR_SIZE:32

LLC Configuration:
LLC_SET:4096
LLC_WAY:16
LLC SLICES:8
LLC_RQ_SIZE:64
LLC_WQ_SIZE:64
LLC_PQ_SIZE:32
LLC_MSHR_SIZE:64

Interconnect OFF
Attacker deprioritize is: OFF
Off-chip DRAM Size: 4096 MB Channels: 1 Width: 64-bit Data Rate: 3200 MT/s
PAGE SIZE in KB: 4.000000 
PAGE SIZE in MB: 0.003906 
PAGE offset in bits: 12 
CEASER-S_LLC:0
MIRAGE : 1
CEASER_LATENCY:3
REMAP : OFF
Partitions : 1
Multi-Step : OFF
BFS : OFF

CPU 0 runs /home/anubhav/spec_2017/605.mcf_s-1644B.champsimtrace.xz
CPU 0 Bimodal branch predictor
Initialize Hawkeye state
Initialize Hawkeye state
Initialize Hawkeye state
Initialize Hawkeye state
Initialize Hawkeye state
Initialize Hawkeye state
Initialize Hawkeye state
Initialize Hawkeye state
Heartbeat CPU 0 instructions: 10000002 cycles: 10858887 heartbeat IPC: 0.920905 cumulative IPC: 0.920905 (Simulation time: 1 hr 18 min 56 sec) 
 Total Blocks : 524288 Invalid Blocks : 136962
Heartbeat CPU 0 instructions: 20000000 cycles: 21525076 heartbeat IPC: 0.937542 cumulative IPC: 0.929149 (Simulation time: 2 hr 42 min 33 sec) 
 Total Blocks : 524288 Invalid Blocks : 36439
Heartbeat CPU 0 instructions: 30000000 cycles: 32678037 heartbeat IPC: 0.896623 cumulative IPC: 0.918048 (Simulation time: 3 hr 33 min 30 sec) 
 Total Blocks : 524288 Invalid Blocks : 10211
Heartbeat CPU 0 instructions: 40000000 cycles: 43727483 heartbeat IPC: 0.905023 cumulative IPC: 0.914757 (Simulation time: 3 hr 58 min 29 sec) 
 Total Blocks : 524288 Invalid Blocks : 2798
Heartbeat CPU 0 instructions: 50000003 cycles: 54699136 heartbeat IPC: 0.91144 cumulative IPC: 0.914091 (Simulation time: 4 hr 17 min 45 sec) 
 Total Blocks : 524288 Invalid Blocks : 744
Heartbeat CPU 0 instructions: 60000000 cycles: 65654463 heartbeat IPC: 0.912798 cumulative IPC: 0.913875 (Simulation time: 4 hr 32 min 6 sec) 
 Total Blocks : 524288 Invalid Blocks : 200
Heartbeat CPU 0 instructions: 70000000 cycles: 76566891 heartbeat IPC: 0.916386 cumulative IPC: 0.914233 (Simulation time: 4 hr 44 min 33 sec) 
 Total Blocks : 524288 Invalid Blocks : 54
Heartbeat CPU 0 instructions: 80000000 cycles: 87486572 heartbeat IPC: 0.915778 cumulative IPC: 0.914426 (Simulation time: 4 hr 55 min 12 sec) 
 Total Blocks : 524288 Invalid Blocks : 16
Heartbeat CPU 0 instructions: 90000003 cycles: 98311238 heartbeat IPC: 0.923816 cumulative IPC: 0.91546 (Simulation time: 5 hr 5 min 15 sec) 
 Total Blocks : 524288 Invalid Blocks : 5
Heartbeat CPU 0 instructions: 100000000 cycles: 109203612 heartbeat IPC: 0.918073 cumulative IPC: 0.915721 (Simulation time: 5 hr 15 min 8 sec) 
 Total Blocks : 524288 Invalid Blocks : 1
Heartbeat CPU 0 instructions: 110000000 cycles: 120102030 heartbeat IPC: 0.917564 cumulative IPC: 0.915888 (Simulation time: 5 hr 25 min 29 sec) 
 Total Blocks : 524288 Invalid Blocks : 0
Heartbeat CPU 0 instructions: 120000000 cycles: 131035832 heartbeat IPC: 0.914595 cumulative IPC: 0.91578 (Simulation time: 5 hr 35 min 39 sec) 
 Total Blocks : 524288 Invalid Blocks : 0
Heartbeat CPU 0 instructions: 130000000 cycles: 142023295 heartbeat IPC: 0.910128 cumulative IPC: 0.915343 (Simulation time: 5 hr 44 min 23 sec) 
 Total Blocks : 524288 Invalid Blocks : 0
Heartbeat CPU 0 instructions: 140000002 cycles: 153037530 heartbeat IPC: 0.907916 cumulative IPC: 0.914808 (Simulation time: 5 hr 53 min 17 sec) 
 Total Blocks : 524288 Invalid Blocks : 0
Heartbeat CPU 0 instructions: 150000003 cycles: 163868986 heartbeat IPC: 0.923237 cumulative IPC: 0.915365 (Simulation time: 6 hr 1 min 59 sec) 
 Total Blocks : 524288 Invalid Blocks : 0
Heartbeat CPU 0 instructions: 160000001 cycles: 174351325 heartbeat IPC: 0.953985 cumulative IPC: 0.917687 (Simulation time: 6 hr 17 min 51 sec) 
 Total Blocks : 524288 Invalid Blocks : 0
Heartbeat CPU 0 instructions: 170000003 cycles: 185522950 heartbeat IPC: 0.895125 cumulative IPC: 0.916329 (Simulation time: 6 hr 35 min 3 sec) 
 Total Blocks : 524288 Invalid Blocks : 0
Heartbeat CPU 0 instructions: 180000002 cycles: 196610457 heartbeat IPC: 0.901916 cumulative IPC: 0.915516 (Simulation time: 6 hr 45 min 45 sec) 
 Total Blocks : 524288 Invalid Blocks : 0
Heartbeat CPU 0 instructions: 190000000 cycles: 207674857 heartbeat IPC: 0.903799 cumulative IPC: 0.914892 (Simulation time: 6 hr 55 min 30 sec) 
 Total Blocks : 524288 Invalid Blocks : 0
Heartbeat CPU 0 instructions: 200000001 cycles: 218791992 heartbeat IPC: 0.899512 cumulative IPC: 0.91411 (Simulation time: 7 hr 4 min 55 sec) 
 Total Blocks : 524288 Invalid Blocks : 0

Warmup complete CPU 0 instructions: 200000001 cycles: 218791992 (Simulation time: 7 hr 4 min 55 sec) 

Heartbeat CPU 0 instructions: 210000000 cycles: 277641357 heartbeat IPC: 0.169925 cumulative IPC: 0.169925 (Simulation time: 7 hr 16 min 42 sec) 
 Total Blocks : 524288 Invalid Blocks : 0
Heartbeat CPU 0 instructions: 220000000 cycles: 336650821 heartbeat IPC: 0.169464 cumulative IPC: 0.169695 (Simulation time: 7 hr 28 min 32 sec) 
 Total Blocks : 524288 Invalid Blocks : 0
Heartbeat CPU 0 instructions: 230000000 cycles: 395444427 heartbeat IPC: 0.170087 cumulative IPC: 0.169825 (Simulation time: 7 hr 40 min 24 sec) 
 Total Blocks : 524288 Invalid Blocks : 0
Heartbeat CPU 0 instructions: 240000001 cycles: 454397559 heartbeat IPC: 0.169626 cumulative IPC: 0.169775 (Simulation time: 7 hr 52 min 21 sec) 
 Total Blocks : 524288 Invalid Blocks : 0
Heartbeat CPU 0 instructions: 250000000 cycles: 513581208 heartbeat IPC: 0.168966 cumulative IPC: 0.169613 (Simulation time: 8 hr 4 min 24 sec) 
 Total Blocks : 524288 Invalid Blocks : 0
Heartbeat CPU 0 instructions: 260000000 cycles: 572539899 heartbeat IPC: 0.16961 cumulative IPC: 0.169612 (Simulation time: 8 hr 16 min 33 sec) 
 Total Blocks : 524288 Invalid Blocks : 0
Heartbeat CPU 0 instructions: 270000000 cycles: 631910478 heartbeat IPC: 0.168434 cumulative IPC: 0.169443 (Simulation time: 8 hr 28 min 51 sec) 
 Total Blocks : 524288 Invalid Blocks : 0
Heartbeat CPU 0 instructions: 280000000 cycles: 691034920 heartbeat IPC: 0.169135 cumulative IPC: 0.169404 (Simulation time: 8 hr 41 min 13 sec) 
 Total Blocks : 524288 Invalid Blocks : 0
Heartbeat CPU 0 instructions: 290000000 cycles: 749918114 heartbeat IPC: 0.169828 cumulative IPC: 0.169451 (Simulation time: 8 hr 53 min 38 sec) 
 Total Blocks : 524288 Invalid Blocks : 0
Heartbeat CPU 0 instructions: 300000000 cycles: 808915880 heartbeat IPC: 0.169498 cumulative IPC: 0.169456 (Simulation time: 9 hr 6 min 11 sec) 
 Total Blocks : 524288 Invalid Blocks : 0
Heartbeat CPU 0 instructions: 310000002 cycles: 868542963 heartbeat IPC: 0.167709 cumulative IPC: 0.169296 (Simulation time: 9 hr 18 min 52 sec) 
 Total Blocks : 524288 Invalid Blocks : 0
Heartbeat CPU 0 instructions: 320000000 cycles: 927487596 heartbeat IPC: 0.169651 cumulative IPC: 0.169325 (Simulation time: 9 hr 31 min 40 sec) 
 Total Blocks : 524288 Invalid Blocks : 0
Heartbeat CPU 0 instructions: 330000000 cycles: 986681793 heartbeat IPC: 0.168935 cumulative IPC: 0.169295 (Simulation time: 9 hr 44 min 34 sec) 
 Total Blocks : 524288 Invalid Blocks : 0
Heartbeat CPU 0 instructions: 340000000 cycles: 1046013279 heartbeat IPC: 0.168545 cumulative IPC: 0.169241 (Simulation time: 9 hr 57 min 36 sec) 
 Total Blocks : 524288 Invalid Blocks : 0
Heartbeat CPU 0 instructions: 350000002 cycles: 1105234625 heartbeat IPC: 0.168858 cumulative IPC: 0.169216 (Simulation time: 10 hr 10 min 46 sec) 
 Total Blocks : 524288 Invalid Blocks : 0
Heartbeat CPU 0 instructions: 360000002 cycles: 1164458233 heartbeat IPC: 0.168852 cumulative IPC: 0.169193 (Simulation time: 10 hr 24 min 4 sec) 
 Total Blocks : 524288 Invalid Blocks : 0
Heartbeat CPU 0 instructions: 370000000 cycles: 1223740481 heartbeat IPC: 0.168685 cumulative IPC: 0.169163 (Simulation time: 10 hr 37 min 27 sec) 
 Total Blocks : 524288 Invalid Blocks : 0
Heartbeat CPU 0 instructions: 380000000 cycles: 1283176064 heartbeat IPC: 0.168249 cumulative IPC: 0.169112 (Simulation time: 10 hr 50 min 58 sec) 
 Total Blocks : 524288 Invalid Blocks : 0
Heartbeat CPU 0 instructions: 390000000 cycles: 1342806384 heartbeat IPC: 0.1677 cumulative IPC: 0.169037 (Simulation time: 11 hr 4 min 39 sec) 
 Total Blocks : 524288 Invalid Blocks : 0
Heartbeat CPU 0 instructions: 400000003 cycles: 1401939381 heartbeat IPC: 0.16911 cumulative IPC: 0.169041 (Simulation time: 11 hr 18 min 27 sec) 
 Total Blocks : 524288 Invalid Blocks : 0
Finished CPU 0 instructions: 200000002 cycles: 1183147389 cumulative IPC: 0.169041 (Simulation time: 11 hr 18 min 27 sec) 

CPU 0 Branch Prediction Accuracy: 91.1649% MPKI: 7.11484 Average ROB Occupancy at Mispredict: 119.34

ChampSim completed all CPUs

Region of Interest Statistics

CPU 0 cumulative IPC: 0.169041 instructions: 200000002 cycles: 1183147389
ITLB TOTAL     ACCESS: 28966678  HIT: 28966678  MISS:     0  HIT %:   100  MISS %:     0  AVERAGE MISS PENALTY: 0
ITLB LOAD      ACCESS: 28966678  HIT: 28966678  MISS:     0  HIT %:   100  MISS %:     0  AVERAGE MISS PENALTY: 0
ITLB RFO       ACCESS:     0  HIT:     0  MISS:     0  HIT %:     0  MISS %:     0  AVERAGE MISS PENALTY: 0
ITLB PREFETCH  ACCESS:     0  HIT:     0  MISS:     0  HIT %:     0  MISS %:     0  AVERAGE MISS PENALTY: 0
ITLB WRITEBACK ACCESS:     0  HIT:     0  MISS:     0  HIT %:     0  MISS %:     0  AVERAGE MISS PENALTY: 0
ITLB PREFETCH  REQUESTED:     0  ISSUED:     0  USEFUL:     0  USELESS:     0
 USEFUL LOAD PREFETCHES:          0 PREFETCH ISSUED TO LOWER LEVEL:          0  ACCURACY: -nan
 TIMELY PREFETCHES:          0 LATE PREFETCHES: 0 DROPPED PREFETCHES: 0
ITLB AVERAGE MISS LATENCY: -nan cycles
DTLB TOTAL     ACCESS: 117683367  HIT: 112330311  MISS: 5353056  HIT %: 95.4513  MISS %: 4.54869  AVERAGE MISS PENALTY: 103.982
DTLB LOAD      ACCESS: 56440986  HIT: 55536988  MISS: 903998  HIT %: 98.3983  MISS %: 1.60167  AVERAGE MISS PENALTY: 73.812
DTLB RFO       ACCESS: 61242381  HIT: 56793323  MISS: 4449058  HIT %: 92.7353  MISS %: 7.26467  AVERAGE MISS PENALTY: 110.112
DTLB PREFETCH  ACCESS:     0  HIT:     0  MISS:     0  HIT %:     0  MISS %:     0  AVERAGE MISS PENALTY: 0
DTLB WRITEBACK ACCESS:     0  HIT:     0  MISS:     0  HIT %:     0  MISS %:     0  AVERAGE MISS PENALTY: 0
DTLB PREFETCH  REQUESTED:     0  ISSUED:     0  USEFUL:     0  USELESS:     0
 USEFUL LOAD PREFETCHES:          0 PREFETCH ISSUED TO LOWER LEVEL:          0  ACCURACY: -nan
 TIMELY PREFETCHES:          0 LATE PREFETCHES: 0 DROPPED PREFETCHES: 0
DTLB AVERAGE MISS LATENCY: 103.982 cycles
STLB TOTAL     ACCESS: 5353056  HIT: 537848  MISS: 4815208  HIT %: 10.0475  MISS %: 89.9525  AVERAGE MISS PENALTY: 100
STLB LOAD      ACCESS: 903998  HIT: 500513  MISS: 403485  HIT %: 55.3666  MISS %: 44.6334  AVERAGE MISS PENALTY: 100
STLB RFO       ACCESS: 4449058  HIT: 37335  MISS: 4411723  HIT %: 0.839166  MISS %: 99.1608  AVERAGE MISS PENALTY: 100
STLB PREFETCH  ACCESS:     0  HIT:     0  MISS:     0  HIT %:     0  MISS %:     0  AVERAGE MISS PENALTY: 0
STLB WRITEBACK ACCESS:     0  HIT:     0  MISS:     0  HIT %:     0  MISS %:     0  AVERAGE MISS PENALTY: 0
STLB PREFETCH  REQUESTED:     0  ISSUED:     0  USEFUL:     0  USELESS:     0
 USEFUL LOAD PREFETCHES:          0 PREFETCH ISSUED TO LOWER LEVEL:          0  ACCURACY: -nan
 TIMELY PREFETCHES:          0 LATE PREFETCHES: 0 DROPPED PREFETCHES: 0
STLB AVERAGE MISS LATENCY: 100 cycles
L1D TOTAL     ACCESS: 153695949  HIT: 131427316  MISS: 22268633  HIT %: 85.5112  MISS %: 14.4888  AVERAGE MISS PENALTY: 1.76042e+06
L1D LOAD      ACCESS: 63797213  HIT: 59407714  MISS: 4389499  HIT %: 93.1196  MISS %: 6.88039  AVERAGE MISS PENALTY: 8.93005e+06
L1D RFO       ACCESS: 39883917  HIT: 31137041  MISS: 8746876  HIT %: 78.0692  MISS %: 21.9308  AVERAGE MISS PENALTY: 336.559
L1D PREFETCH  ACCESS: 50014819  HIT: 40882561  MISS: 9132258  HIT %: 81.7409  MISS %: 18.2591  AVERAGE MISS PENALTY: 75.884
L1D WRITEBACK ACCESS:     0  HIT:     0  MISS:     0  HIT %:     0  MISS %:     0  AVERAGE MISS PENALTY: 0
L1D PREFETCH  REQUESTED: 71192717  ISSUED: 65165756  USEFUL: 4851672  USELESS: 4280501
 USEFUL LOAD PREFETCHES:    4851672 PREFETCH ISSUED TO LOWER LEVEL:    9826329  ACCURACY: 49.3742
 TIMELY PREFETCHES:    4851672 LATE PREFETCHES: 284328 DROPPED PREFETCHES: 6026961
L1D AVERAGE MISS LATENCY: 176.626 cycles
L1I TOTAL     ACCESS: 36345469  HIT: 36345469  MISS:     0  HIT %:   100  MISS %:     0  AVERAGE MISS PENALTY: 0
L1I LOAD      ACCESS: 36345469  HIT: 36345469  MISS:     0  HIT %:   100  MISS %:     0  AVERAGE MISS PENALTY: 0
L1I RFO       ACCESS:     0  HIT:     0  MISS:     0  HIT %:     0  MISS %:     0  AVERAGE MISS PENALTY: 0
L1I PREFETCH  ACCESS:     0  HIT:     0  MISS:     0  HIT %:     0  MISS %:     0  AVERAGE MISS PENALTY: 0
L1I WRITEBACK ACCESS:     0  HIT:     0  MISS:     0  HIT %:     0  MISS %:     0  AVERAGE MISS PENALTY: 0
L1I PREFETCH  REQUESTED:     0  ISSUED:     0  USEFUL:     0  USELESS:     0
 USEFUL LOAD PREFETCHES:          0 PREFETCH ISSUED TO LOWER LEVEL:          0  ACCURACY: -nan
 TIMELY PREFETCHES:          0 LATE PREFETCHES: 0 DROPPED PREFETCHES: 0
L1I AVERAGE MISS LATENCY: -nan cycles
L2C TOTAL     ACCESS: 50558720  HIT: 28584012  MISS: 21974708  HIT %: 56.5363  MISS %: 43.4637  AVERAGE MISS PENALTY: 1.05158e+06
L2C LOAD      ACCESS: 4381236  HIT: 1026902  MISS: 3354334  HIT %: 23.4386  MISS %: 76.5614  AVERAGE MISS PENALTY: 6.88769e+06
L2C RFO       ACCESS: 8746876  HIT:   173  MISS: 8746703  HIT %: 0.00197785  MISS %: 99.998  AVERAGE MISS PENALTY: 316.322
L2C PREFETCH  ACCESS: 19442476  HIT: 9574478  MISS: 9867998  HIT %: 49.2452  MISS %: 50.7548  AVERAGE MISS PENALTY: 193.033
L2C WRITEBACK ACCESS: 17988132  HIT: 17982459  MISS:  5673  HIT %: 99.9685  MISS %: 0.0315375  AVERAGE MISS PENALTY: 0
L2C PREFETCH  REQUESTED: 21235068  ISSUED: 21125928  USEFUL: 139223  USELESS: 9727941
 USEFUL LOAD PREFETCHES:     139223 PREFETCH ISSUED TO LOWER LEVEL:   11559426  ACCURACY: 1.20441
 TIMELY PREFETCHES:     139223 LATE PREFETCHES: 245135 DROPPED PREFETCHES: 109140
L2C AVERAGE MISS LATENCY: 221.944 cycles
LLC0 TOTAL     ACCESS: 4820577  HIT: 3113830  MISS: 1706747  HIT %: 64.5945  MISS %: 35.4055  AVERAGE MISS PENALTY: 273.093
LLC0 LOAD      ACCESS: 474490  HIT: 385971  MISS: 88519  HIT %: 81.3444  MISS %: 18.6556  AVERAGE MISS PENALTY: 225.221
LLC0 RFO       ACCESS: 1099752  HIT: 73289  MISS: 1026463  HIT %: 6.66414  MISS %: 93.3359  AVERAGE MISS PENALTY: 277.837
LLC0 PREFETCH  ACCESS: 1108317  HIT: 537651  MISS: 570666  HIT %: 48.5106  MISS %: 51.4894  AVERAGE MISS PENALTY: 282.084
LLC0 WRITEBACK ACCESS: 2138018  HIT: 2116919  MISS: 21099  HIT %: 99.0132  MISS %: 0.986849  AVERAGE MISS PENALTY: 0
LLC0 PREFETCH  REQUESTED:     0  ISSUED:     0  USEFUL:  5135  USELESS: 565855
 USEFUL LOAD PREFETCHES:       5135 PREFETCH ISSUED TO LOWER LEVEL:     570667  ACCURACY: 0.899824
 TIMELY PREFETCHES:       5135 LATE PREFETCHES: 0 DROPPED PREFETCHES: 0
LLC0 AVERAGE MISS LATENCY: 273.093 cycles
Deadblocks : 83675 Deadblock percentage : 94.5277

LLC1 TOTAL     ACCESS: 4873506  HIT: 3174508  MISS: 1698998  HIT %: 65.1381  MISS %: 34.8619  AVERAGE MISS PENALTY: 275.592
LLC1 LOAD      ACCESS: 443235  HIT: 397591  MISS: 45644  HIT %: 89.7021  MISS %: 10.2979  AVERAGE MISS PENALTY: 239.718
LLC1 RFO       ACCESS: 1089985  HIT: 72401  MISS: 1017584  HIT %: 6.64238  MISS %: 93.3576  AVERAGE MISS PENALTY: 279.658
LLC1 PREFETCH  ACCESS: 1198468  HIT: 583056  MISS: 615412  HIT %: 48.6501  MISS %: 51.3499  AVERAGE MISS PENALTY: 280.646
LLC1 WRITEBACK ACCESS: 2141818  HIT: 2121460  MISS: 20358  HIT %: 99.0495  MISS %: 0.950501  AVERAGE MISS PENALTY: 0
LLC1 PREFETCH  REQUESTED:     0  ISSUED:     0  USEFUL:  5251  USELESS: 611370
 USEFUL LOAD PREFETCHES:       5251 PREFETCH ISSUED TO LOWER LEVEL:     615413  ACCURACY: 0.853248
 TIMELY PREFETCHES:       5251 LATE PREFETCHES: 0 DROPPED PREFETCHES: 0
LLC1 AVERAGE MISS LATENCY: 275.592 cycles
LLC2 TOTAL     ACCESS: 4901425  HIT: 3203773  MISS: 1697652  HIT %: 65.3641  MISS %: 34.6359  AVERAGE MISS PENALTY: 277.634
LLC2 LOAD      ACCESS: 415753  HIT: 389871  MISS: 25882  HIT %: 93.7747  MISS %: 6.22533  AVERAGE MISS PENALTY: 271.997
LLC2 RFO       ACCESS: 1087807  HIT: 72577  MISS: 1015230  HIT %: 6.67186  MISS %: 93.3281  AVERAGE MISS PENALTY: 278.954
LLC2 PREFETCH  ACCESS: 1264682  HIT: 628141  MISS: 636541  HIT %: 49.6679  MISS %: 50.3321  AVERAGE MISS PENALTY: 284.481
LLC2 WRITEBACK ACCESS: 2133183  HIT: 2113184  MISS: 19999  HIT %: 99.0625  MISS %: 0.937519  AVERAGE MISS PENALTY: 0
LLC2 PREFETCH  REQUESTED:     0  ISSUED:     0  USEFUL:  5663  USELESS: 631103
 USEFUL LOAD PREFETCHES:       5663 PREFETCH ISSUED TO LOWER LEVEL:     636541  ACCURACY: 0.889652
 TIMELY PREFETCHES:       5663 LATE PREFETCHES: 0 DROPPED PREFETCHES: 0
LLC2 AVERAGE MISS LATENCY: 277.634 cycles
LLC3 TOTAL     ACCESS: 4907966  HIT: 3202782  MISS: 1705184  HIT %: 65.2568  MISS %: 34.7432  AVERAGE MISS PENALTY: 277.999
LLC3 LOAD      ACCESS: 399787  HIT: 385108  MISS: 14679  HIT %: 96.3283  MISS %: 3.67171  AVERAGE MISS PENALTY: 296.557
LLC3 RFO       ACCESS: 1096964  HIT: 73925  MISS: 1023039  HIT %: 6.73905  MISS %: 93.2609  AVERAGE MISS PENALTY: 279.506
LLC3 PREFETCH  ACCESS: 1275578  HIT: 628192  MISS: 647386  HIT %: 49.2476  MISS %: 50.7524  AVERAGE MISS PENALTY: 283.82
LLC3 WRITEBACK ACCESS: 2135637  HIT: 2115557  MISS: 20080  HIT %: 99.0598  MISS %: 0.940235  AVERAGE MISS PENALTY: 0
LLC3 PREFETCH  REQUESTED:     0  ISSUED:     0  USEFUL:  5784  USELESS: 641609
 USEFUL LOAD PREFETCHES:       5784 PREFETCH ISSUED TO LOWER LEVEL:     647386  ACCURACY: 0.893439
 TIMELY PREFETCHES:       5784 LATE PREFETCHES: 0 DROPPED PREFETCHES: 0
LLC3 AVERAGE MISS LATENCY: 277.999 cycles
LLC4 TOTAL     ACCESS: 4895868  HIT: 3187661  MISS: 1708207  HIT %: 65.1092  MISS %: 34.8908  AVERAGE MISS PENALTY: 278.11
LLC4 LOAD      ACCESS: 395503  HIT: 383783  MISS: 11720  HIT %: 97.0367  MISS %: 2.96332  AVERAGE MISS PENALTY: 305.048
LLC4 RFO       ACCESS: 1098626  HIT: 73071  MISS: 1025555  HIT %: 6.65113  MISS %: 93.3489  AVERAGE MISS PENALTY: 280.378
LLC4 PREFETCH  ACCESS: 1264411  HIT: 613845  MISS: 650566  HIT %: 48.5479  MISS %: 51.4521  AVERAGE MISS PENALTY: 282.755
LLC4 WRITEBACK ACCESS: 2137328  HIT: 2116962  MISS: 20366  HIT %: 99.0471  MISS %: 0.952872  AVERAGE MISS PENALTY: 0
LLC4 PREFETCH  REQUESTED:     0  ISSUED:     0  USEFUL:  5766  USELESS: 644895
 USEFUL LOAD PREFETCHES:       5766 PREFETCH ISSUED TO LOWER LEVEL:     650566  ACCURACY: 0.886305
 TIMELY PREFETCHES:       5766 LATE PREFETCHES: 0 DROPPED PREFETCHES: 0
LLC4 AVERAGE MISS LATENCY: 278.11 cycles
LLC5 TOTAL     ACCESS: 4853392  HIT: 3154261  MISS: 1699131  HIT %: 64.9909  MISS %: 35.0091  AVERAGE MISS PENALTY: 277.625
LLC5 LOAD      ACCESS: 385898  HIT: 374399  MISS: 11499  HIT %: 97.0202  MISS %: 2.9798  AVERAGE MISS PENALTY: 306.703
LLC5 RFO       ACCESS: 1088496  HIT: 71777  MISS: 1016719  HIT %: 6.59414  MISS %: 93.4059  AVERAGE MISS PENALTY: 280.715
LLC5 PREFETCH  ACCESS: 1261461  HIT: 611015  MISS: 650446  HIT %: 48.4371  MISS %: 51.5629  AVERAGE MISS PENALTY: 281.015
LLC5 WRITEBACK ACCESS: 2117537  HIT: 2097070  MISS: 20467  HIT %: 99.0335  MISS %: 0.966547  AVERAGE MISS PENALTY: 0
LLC5 PREFETCH  REQUESTED:     0  ISSUED:     0  USEFUL:  5584  USELESS: 645159
 USEFUL LOAD PREFETCHES:       5584 PREFETCH ISSUED TO LOWER LEVEL:     650446  ACCURACY: 0.858488
 TIMELY PREFETCHES:       5584 LATE PREFETCHES: 0 DROPPED PREFETCHES: 0
LLC5 AVERAGE MISS LATENCY: 277.625 cycles
LLC6 TOTAL     ACCESS: 4887283  HIT: 3189470  MISS: 1697813  HIT %: 65.2606  MISS %: 34.7394  AVERAGE MISS PENALTY: 277.458
LLC6 LOAD      ACCESS: 409347  HIT: 397400  MISS: 11947  HIT %: 97.0814  MISS %: 2.91855  AVERAGE MISS PENALTY: 302.2
LLC6 RFO       ACCESS: 1087175  HIT: 72055  MISS: 1015120  HIT %: 6.62773  MISS %: 93.3723  AVERAGE MISS PENALTY: 280.225
LLC6 PREFETCH  ACCESS: 1254419  HIT: 603983  MISS: 650436  HIT %: 48.1484  MISS %: 51.8516  AVERAGE MISS PENALTY: 281.35
LLC6 WRITEBACK ACCESS: 2136342  HIT: 2116032  MISS: 20310  HIT %: 99.0493  MISS %: 0.95069  AVERAGE MISS PENALTY: 0
LLC6 PREFETCH  REQUESTED:     0  ISSUED:     0  USEFUL:  5485  USELESS: 644693
 USEFUL LOAD PREFETCHES:       5485 PREFETCH ISSUED TO LOWER LEVEL:     650436  ACCURACY: 0.843281
 TIMELY PREFETCHES:       5485 LATE PREFETCHES: 0 DROPPED PREFETCHES: 0
LLC6 AVERAGE MISS LATENCY: 277.458 cycles
LLC7 TOTAL     ACCESS: 4911003  HIT: 3204168  MISS: 1706835  HIT %: 65.2447  MISS %: 34.7553  AVERAGE MISS PENALTY: 277.257
LLC7 LOAD      ACCESS: 403012  HIT: 391429  MISS: 11583  HIT %: 97.1259  MISS %: 2.87411  AVERAGE MISS PENALTY: 302.143
LLC7 RFO       ACCESS: 1097898  HIT: 73719  MISS: 1024179  HIT %: 6.71456  MISS %: 93.2854  AVERAGE MISS PENALTY: 279.632
LLC7 PREFETCH  ACCESS: 1267842  HIT: 617436  MISS: 650406  HIT %: 48.6998  MISS %: 51.3002  AVERAGE MISS PENALTY: 281.883
LLC7 WRITEBACK ACCESS: 2142251  HIT: 2121584  MISS: 20667  HIT %: 99.0353  MISS %: 0.964733  AVERAGE MISS PENALTY: 0
LLC7 PREFETCH  REQUESTED:     0  ISSUED:     0  USEFUL:  5789  USELESS: 644818
 USEFUL LOAD PREFETCHES:       5789 PREFETCH ISSUED TO LOWER LEVEL:     650406  ACCURACY: 0.890059
 TIMELY PREFETCHES:       5789 LATE PREFETCHES: 0 DROPPED PREFETCHES: 0
LLC7 AVERAGE MISS LATENCY: 277.257 cycles
ROI Average ROB Stall Cycles:	18.4788
ROI Total ROB Stalls Cycles:	964931794
ROI TOTAL ROB counter      :	52218306
ROI Average Load ROB Stall Cycles:	22.3944
ROI Total Load ROB Stalls Cycle  :	83591281
ROI Total Load ROB stalls Counter:	3732686
Major fault: 0 Minor fault: 375703

Interconnect Stats 
LINK 0 BW : 0LINK 1 BW : 0LINK 2 BW : 0LINK 3 BW : 0LINK 4 BW : 0LINK 5 BW : 0LINK 6 BW : 0LINK 7 BW : 0
DRAM Statistics
 CHANNEL 0
 RQ ROW_BUFFER_HIT: 276521  ROW_BUFFER_MISS: 13180210
 DBUS_CONGESTED: 14904525
 WQ ROW_BUFFER_HIT: 2284472  ROW_BUFFER_MISS: 10991569  FULL:     0

 AVG_CONGESTED_CYCLE: 6
DRAM PAGES: 1048576
Allocated PAGES: 375703
L2C destructor called
L1D destructor called
L1I destructor called
STLB destructor called
DTLB destructor called
ITLB destructor called
