
*** ChampSim Multicore Out-of-Order Simulator ***

Warmup Instructions: 200000000
Simulation Instructions: 200000000
Number of CPUs: 1
threads:1

L1I Configuration:
L1I_SET:64
L1I_WAY:8
L1I_RQ_SIZE:64
L1I_WQ_SIZE:64
L1I_PQ_SIZE:8
L1I_MSHR_SIZE:8

L1D Configuration:
L1D_SET:64
L1D_WAY:12
L1D_RQ_SIZE:64
L1D_WQ_SIZE:64
L1D_PQ_SIZE:8
L1D_MSHR_SIZE:16

L2C Configuration:
L2C_SET:1024
L2C_WAY:8
L2C_RQ_SIZE:32
L2C_WQ_SIZE:32
L2C_PQ_SIZE:16
L2C_MSHR_SIZE:32

LLC Configuration:
LLC_SET:4096
LLC_WAY:16
LLC SLICES:8
LLC_RQ_SIZE:64
LLC_WQ_SIZE:64
LLC_PQ_SIZE:32
LLC_MSHR_SIZE:64

Interconnect OFF
Attacker deprioritize is: OFF
Off-chip DRAM Size: 4096 MB Channels: 1 Width: 64-bit Data Rate: 3200 MT/s
PAGE SIZE in KB: 4.000000 
PAGE SIZE in MB: 0.003906 
PAGE offset in bits: 12 
CEASER-S_LLC:0
MIRAGE : 1
CEASER_LATENCY:3
REMAP : OFF
Partitions : 1
Multi-Step : OFF
BFS : OFF

CPU 0 runs /home/anubhav/spec_2017/605.mcf_s-1152B.champsimtrace.xz
CPU 0 Bimodal branch predictor
Initialize Hawkeye state
Initialize Hawkeye state
Initialize Hawkeye state
Initialize Hawkeye state
Initialize Hawkeye state
Initialize Hawkeye state
Initialize Hawkeye state
Initialize Hawkeye state
Heartbeat CPU 0 instructions: 10000001 cycles: 11240959 heartbeat IPC: 0.889604 cumulative IPC: 0.889604 (Simulation time: 0 hr 2 min 9 sec) 
 Total Blocks : 524288 Invalid Blocks : 362550
Heartbeat CPU 0 instructions: 20000002 cycles: 22506280 heartbeat IPC: 0.88768 cumulative IPC: 0.888641 (Simulation time: 0 hr 4 min 35 sec) 
 Total Blocks : 524288 Invalid Blocks : 264167
Heartbeat CPU 0 instructions: 30000003 cycles: 33728164 heartbeat IPC: 0.891116 cumulative IPC: 0.889464 (Simulation time: 0 hr 8 min 7 sec) 
 Total Blocks : 524288 Invalid Blocks : 195580
Heartbeat CPU 0 instructions: 40000001 cycles: 44987392 heartbeat IPC: 0.88816 cumulative IPC: 0.889138 (Simulation time: 0 hr 11 min 46 sec) 
 Total Blocks : 524288 Invalid Blocks : 144994
Heartbeat CPU 0 instructions: 50000000 cycles: 56209259 heartbeat IPC: 0.891117 cumulative IPC: 0.889533 (Simulation time: 0 hr 15 min 19 sec) 
 Total Blocks : 524288 Invalid Blocks : 106408
Heartbeat CPU 0 instructions: 60000000 cycles: 67420371 heartbeat IPC: 0.891972 cumulative IPC: 0.889939 (Simulation time: 0 hr 18 min 56 sec) 
 Total Blocks : 524288 Invalid Blocks : 77978
Heartbeat CPU 0 instructions: 70000000 cycles: 78675809 heartbeat IPC: 0.888459 cumulative IPC: 0.889727 (Simulation time: 0 hr 22 min 39 sec) 
 Total Blocks : 524288 Invalid Blocks : 56715
Heartbeat CPU 0 instructions: 80000000 cycles: 89839165 heartbeat IPC: 0.895788 cumulative IPC: 0.89048 (Simulation time: 0 hr 26 min 33 sec) 
 Total Blocks : 524288 Invalid Blocks : 41610
Heartbeat CPU 0 instructions: 90000002 cycles: 100977252 heartbeat IPC: 0.89782 cumulative IPC: 0.89129 (Simulation time: 0 hr 30 min 36 sec) 
 Total Blocks : 524288 Invalid Blocks : 30198
Heartbeat CPU 0 instructions: 100000000 cycles: 112022704 heartbeat IPC: 0.90535 cumulative IPC: 0.892676 (Simulation time: 0 hr 34 min 47 sec) 
 Total Blocks : 524288 Invalid Blocks : 21722
Heartbeat CPU 0 instructions: 110000000 cycles: 123032371 heartbeat IPC: 0.908293 cumulative IPC: 0.894074 (Simulation time: 0 hr 39 min 20 sec) 
 Total Blocks : 524288 Invalid Blocks : 15394
Heartbeat CPU 0 instructions: 120000001 cycles: 134014695 heartbeat IPC: 0.910554 cumulative IPC: 0.895424 (Simulation time: 0 hr 43 min 47 sec) 
 Total Blocks : 524288 Invalid Blocks : 10806
Heartbeat CPU 0 instructions: 130000001 cycles: 144867726 heartbeat IPC: 0.921402 cumulative IPC: 0.89737 (Simulation time: 0 hr 48 min 23 sec) 
 Total Blocks : 524288 Invalid Blocks : 7452
Heartbeat CPU 0 instructions: 140000003 cycles: 155614118 heartbeat IPC: 0.930545 cumulative IPC: 0.899661 (Simulation time: 0 hr 53 min 20 sec) 
 Total Blocks : 524288 Invalid Blocks : 4935
Heartbeat CPU 0 instructions: 150000000 cycles: 165919674 heartbeat IPC: 0.97035 cumulative IPC: 0.904052 (Simulation time: 0 hr 58 min 51 sec) 
 Total Blocks : 524288 Invalid Blocks : 3109
Heartbeat CPU 0 instructions: 160000000 cycles: 175862634 heartbeat IPC: 1.00574 cumulative IPC: 0.909801 (Simulation time: 1 hr 5 min 30 sec) 
 Total Blocks : 524288 Invalid Blocks : 1828
Heartbeat CPU 0 instructions: 170000000 cycles: 185674851 heartbeat IPC: 1.01914 cumulative IPC: 0.915579 (Simulation time: 1 hr 12 min 9 sec) 
 Total Blocks : 524288 Invalid Blocks : 1042
Heartbeat CPU 0 instructions: 180000002 cycles: 195023209 heartbeat IPC: 1.06971 cumulative IPC: 0.922967 (Simulation time: 1 hr 19 min 32 sec) 
 Total Blocks : 524288 Invalid Blocks : 592
Heartbeat CPU 0 instructions: 190000001 cycles: 204546921 heartbeat IPC: 1.05001 cumulative IPC: 0.928882 (Simulation time: 1 hr 27 min 14 sec) 
 Total Blocks : 524288 Invalid Blocks : 325
Heartbeat CPU 0 instructions: 200000000 cycles: 214097925 heartbeat IPC: 1.04701 cumulative IPC: 0.934152 (Simulation time: 1 hr 35 min 3 sec) 
 Total Blocks : 524288 Invalid Blocks : 168

Warmup complete CPU 0 instructions: 200000001 cycles: 214097926 (Simulation time: 1 hr 35 min 3 sec) 

Heartbeat CPU 0 instructions: 210000001 cycles: 247171538 heartbeat IPC: 0.302356 cumulative IPC: 0.302356 (Simulation time: 1 hr 47 min 16 sec) 
 Total Blocks : 524288 Invalid Blocks : 94
Heartbeat CPU 0 instructions: 220000000 cycles: 280038113 heartbeat IPC: 0.30426 cumulative IPC: 0.303305 (Simulation time: 1 hr 58 min 51 sec) 
 Total Blocks : 524288 Invalid Blocks : 56
Heartbeat CPU 0 instructions: 230000001 cycles: 313363673 heartbeat IPC: 0.30007 cumulative IPC: 0.302219 (Simulation time: 2 hr 10 min 27 sec) 
 Total Blocks : 524288 Invalid Blocks : 35
Heartbeat CPU 0 instructions: 240000000 cycles: 348482878 heartbeat IPC: 0.284744 cumulative IPC: 0.297652 (Simulation time: 2 hr 22 min 8 sec) 
 Total Blocks : 524288 Invalid Blocks : 21
Heartbeat CPU 0 instructions: 250000000 cycles: 382915178 heartbeat IPC: 0.290425 cumulative IPC: 0.296178 (Simulation time: 2 hr 32 min 42 sec) 
 Total Blocks : 524288 Invalid Blocks : 16
Heartbeat CPU 0 instructions: 260000000 cycles: 416504392 heartbeat IPC: 0.297715 cumulative IPC: 0.296433 (Simulation time: 2 hr 41 min 55 sec) 
 Total Blocks : 524288 Invalid Blocks : 13
Heartbeat CPU 0 instructions: 270000000 cycles: 450779281 heartbeat IPC: 0.291759 cumulative IPC: 0.295756 (Simulation time: 2 hr 49 min 59 sec) 
 Total Blocks : 524288 Invalid Blocks : 8
Heartbeat CPU 0 instructions: 280000002 cycles: 484742415 heartbeat IPC: 0.294437 cumulative IPC: 0.295591 (Simulation time: 2 hr 56 min 12 sec) 
 Total Blocks : 524288 Invalid Blocks : 6
Heartbeat CPU 0 instructions: 290000000 cycles: 518893954 heartbeat IPC: 0.292813 cumulative IPC: 0.295279 (Simulation time: 3 hr 1 min 42 sec) 
 Total Blocks : 524288 Invalid Blocks : 4
Heartbeat CPU 0 instructions: 300000000 cycles: 553008850 heartbeat IPC: 0.293127 cumulative IPC: 0.295063 (Simulation time: 3 hr 7 min 6 sec) 
 Total Blocks : 524288 Invalid Blocks : 2
Heartbeat CPU 0 instructions: 310000003 cycles: 587188439 heartbeat IPC: 0.292572 cumulative IPC: 0.294835 (Simulation time: 3 hr 13 min 15 sec) 
 Total Blocks : 524288 Invalid Blocks : 2
Heartbeat CPU 0 instructions: 320000001 cycles: 621246599 heartbeat IPC: 0.293615 cumulative IPC: 0.294733 (Simulation time: 3 hr 21 min 27 sec) 
 Total Blocks : 524288 Invalid Blocks : 2
Heartbeat CPU 0 instructions: 330000000 cycles: 654872623 heartbeat IPC: 0.297389 cumulative IPC: 0.294935 (Simulation time: 3 hr 27 min 13 sec) 
 Total Blocks : 524288 Invalid Blocks : 2
Heartbeat CPU 0 instructions: 340000000 cycles: 688493339 heartbeat IPC: 0.297436 cumulative IPC: 0.295112 (Simulation time: 3 hr 32 min 44 sec) 
 Total Blocks : 524288 Invalid Blocks : 2
Heartbeat CPU 0 instructions: 350000001 cycles: 721967297 heartbeat IPC: 0.29874 cumulative IPC: 0.295352 (Simulation time: 3 hr 38 min 25 sec) 
 Total Blocks : 524288 Invalid Blocks : 1
Heartbeat CPU 0 instructions: 360000000 cycles: 755461302 heartbeat IPC: 0.298561 cumulative IPC: 0.29555 (Simulation time: 3 hr 44 min 5 sec) 
 Total Blocks : 524288 Invalid Blocks : 0
Heartbeat CPU 0 instructions: 370000001 cycles: 788927326 heartbeat IPC: 0.298811 cumulative IPC: 0.29574 (Simulation time: 3 hr 49 min 53 sec) 
 Total Blocks : 524288 Invalid Blocks : 0
Heartbeat CPU 0 instructions: 380000002 cycles: 822630923 heartbeat IPC: 0.296704 cumulative IPC: 0.295793 (Simulation time: 3 hr 56 min 7 sec) 
 Total Blocks : 524288 Invalid Blocks : 0
Heartbeat CPU 0 instructions: 390000001 cycles: 856403821 heartbeat IPC: 0.296095 cumulative IPC: 0.295809 (Simulation time: 4 hr 2 min 29 sec) 
 Total Blocks : 524288 Invalid Blocks : 0
Heartbeat CPU 0 instructions: 400000000 cycles: 890277911 heartbeat IPC: 0.295211 cumulative IPC: 0.295779 (Simulation time: 4 hr 9 min 2 sec) 
 Total Blocks : 524288 Invalid Blocks : 0
Finished CPU 0 instructions: 200000002 cycles: 676179987 cumulative IPC: 0.295779 (Simulation time: 4 hr 9 min 2 sec) 

CPU 0 Branch Prediction Accuracy: 90.919% MPKI: 20.271 Average ROB Occupancy at Mispredict: 44.3891

ChampSim completed all CPUs

Region of Interest Statistics

CPU 0 cumulative IPC: 0.295779 instructions: 200000002 cycles: 676179987
ITLB TOTAL     ACCESS: 30914816  HIT: 30914816  MISS:     0  HIT %:   100  MISS %:     0  AVERAGE MISS PENALTY: 0
ITLB LOAD      ACCESS: 30914816  HIT: 30914816  MISS:     0  HIT %:   100  MISS %:     0  AVERAGE MISS PENALTY: 0
ITLB RFO       ACCESS:     0  HIT:     0  MISS:     0  HIT %:     0  MISS %:     0  AVERAGE MISS PENALTY: 0
ITLB PREFETCH  ACCESS:     0  HIT:     0  MISS:     0  HIT %:     0  MISS %:     0  AVERAGE MISS PENALTY: 0
ITLB WRITEBACK ACCESS:     0  HIT:     0  MISS:     0  HIT %:     0  MISS %:     0  AVERAGE MISS PENALTY: 0
ITLB PREFETCH  REQUESTED:     0  ISSUED:     0  USEFUL:     0  USELESS:     0
 USEFUL LOAD PREFETCHES:          0 PREFETCH ISSUED TO LOWER LEVEL:          0  ACCURACY: -nan
 TIMELY PREFETCHES:          0 LATE PREFETCHES: 0 DROPPED PREFETCHES: 0
ITLB AVERAGE MISS LATENCY: -nan cycles
DTLB TOTAL     ACCESS: 52361502  HIT: 44542859  MISS: 7818643  HIT %: 85.068  MISS %: 14.932  AVERAGE MISS PENALTY: 10.8685
DTLB LOAD      ACCESS: 42718193  HIT: 35297142  MISS: 7421051  HIT %: 82.6279  MISS %: 17.3721  AVERAGE MISS PENALTY: 10.9103
DTLB RFO       ACCESS: 9643309  HIT: 9245717  MISS: 397592  HIT %: 95.877  MISS %: 4.12298  AVERAGE MISS PENALTY: 10.0897
DTLB PREFETCH  ACCESS:     0  HIT:     0  MISS:     0  HIT %:     0  MISS %:     0  AVERAGE MISS PENALTY: 0
DTLB WRITEBACK ACCESS:     0  HIT:     0  MISS:     0  HIT %:     0  MISS %:     0  AVERAGE MISS PENALTY: 0
DTLB PREFETCH  REQUESTED:     0  ISSUED:     0  USEFUL:     0  USELESS:     0
 USEFUL LOAD PREFETCHES:          0 PREFETCH ISSUED TO LOWER LEVEL:          0  ACCURACY: -nan
 TIMELY PREFETCHES:          0 LATE PREFETCHES: 0 DROPPED PREFETCHES: 0
DTLB AVERAGE MISS LATENCY: 10.8685 cycles
STLB TOTAL     ACCESS: 7818643  HIT: 7712714  MISS: 105929  HIT %: 98.6452  MISS %: 1.35483  AVERAGE MISS PENALTY: 100
STLB LOAD      ACCESS: 7421051  HIT: 7316571  MISS: 104480  HIT %: 98.5921  MISS %: 1.40789  AVERAGE MISS PENALTY: 100
STLB RFO       ACCESS: 397592  HIT: 396143  MISS:  1449  HIT %: 99.6356  MISS %: 0.364444  AVERAGE MISS PENALTY: 100
STLB PREFETCH  ACCESS:     0  HIT:     0  MISS:     0  HIT %:     0  MISS %:     0  AVERAGE MISS PENALTY: 0
STLB WRITEBACK ACCESS:     0  HIT:     0  MISS:     0  HIT %:     0  MISS %:     0  AVERAGE MISS PENALTY: 0
STLB PREFETCH  REQUESTED:     0  ISSUED:     0  USEFUL:     0  USELESS:     0
 USEFUL LOAD PREFETCHES:          0 PREFETCH ISSUED TO LOWER LEVEL:          0  ACCURACY: -nan
 TIMELY PREFETCHES:          0 LATE PREFETCHES: 0 DROPPED PREFETCHES: 0
STLB AVERAGE MISS LATENCY: 100 cycles
L1D TOTAL     ACCESS: 96308106  HIT: 78393627  MISS: 17914479  HIT %: 81.3988  MISS %: 18.6012  AVERAGE MISS PENALTY: 1.72909e+07
L1D LOAD      ACCESS: 51599462  HIT: 41166531  MISS: 10432931  HIT %: 79.7809  MISS %: 20.2191  AVERAGE MISS PENALTY: 2.96568e+07
L1D RFO       ACCESS: 15965793  HIT: 15379249  MISS: 586544  HIT %: 96.3262  MISS %: 3.67375  AVERAGE MISS PENALTY: 595738
L1D PREFETCH  ACCESS: 28742851  HIT: 21847847  MISS: 6895004  HIT %: 76.0114  MISS %: 23.9886  AVERAGE MISS PENALTY: 66.6949
L1D WRITEBACK ACCESS:     0  HIT:     0  MISS:     0  HIT %:     0  MISS %:     0  AVERAGE MISS PENALTY: 0
L1D PREFETCH  REQUESTED: 46766079  ISSUED: 43626935  USEFUL: 4140186  USELESS: 2755142
 USEFUL LOAD PREFETCHES:    4140186 PREFETCH ISSUED TO LOWER LEVEL:   11899995  ACCURACY: 34.7915
 TIMELY PREFETCHES:    4140186 LATE PREFETCHES: 1144812 DROPPED PREFETCHES: 3139144
L1D AVERAGE MISS LATENCY: 19561.3 cycles
L1I TOTAL     ACCESS: 38446320  HIT: 38446318  MISS:     2  HIT %:   100  MISS %: 5.20206e-06  AVERAGE MISS PENALTY: 119
L1I LOAD      ACCESS: 38446320  HIT: 38446318  MISS:     2  HIT %:   100  MISS %: 5.20206e-06  AVERAGE MISS PENALTY: 119
L1I RFO       ACCESS:     0  HIT:     0  MISS:     0  HIT %:     0  MISS %:     0  AVERAGE MISS PENALTY: 0
L1I PREFETCH  ACCESS:     0  HIT:     0  MISS:     0  HIT %:     0  MISS %:     0  AVERAGE MISS PENALTY: 0
L1I WRITEBACK ACCESS:     0  HIT:     0  MISS:     0  HIT %:     0  MISS %:     0  AVERAGE MISS PENALTY: 0
L1I PREFETCH  REQUESTED:     0  ISSUED:     0  USEFUL:     0  USELESS:     0
 USEFUL LOAD PREFETCHES:          0 PREFETCH ISSUED TO LOWER LEVEL:          0  ACCURACY: -nan
 TIMELY PREFETCHES:          0 LATE PREFETCHES: 0 DROPPED PREFETCHES: 0
L1I AVERAGE MISS LATENCY: 119 cycles
L2C TOTAL     ACCESS: 24378092  HIT: 9635339  MISS: 14742753  HIT %: 39.5246  MISS %: 60.4754  AVERAGE MISS PENALTY: 7.14257e+06
L2C LOAD      ACCESS: 10321873  HIT: 2524207  MISS: 7797666  HIT %: 24.4549  MISS %: 75.5451  AVERAGE MISS PENALTY: 1.35038e+07
L2C RFO       ACCESS: 585937  HIT: 243430  MISS: 342507  HIT %: 41.5454  MISS %: 58.4546  AVERAGE MISS PENALTY: 7708.83
L2C PREFETCH  ACCESS: 12501180  HIT: 5899948  MISS: 6601232  HIT %: 47.1951  MISS %: 52.8049  AVERAGE MISS PENALTY: 111.991
L2C WRITEBACK ACCESS: 969102  HIT: 967754  MISS:  1348  HIT %: 99.8609  MISS %: 0.139098  AVERAGE MISS PENALTY: 0
L2C PREFETCH  REQUESTED: 16582249  ISSUED: 16542478  USEFUL: 530102  USELESS: 6071579
 USEFUL LOAD PREFETCHES:     530102 PREFETCH ISSUED TO LOWER LEVEL:    8339655  ACCURACY: 6.3564
 TIMELY PREFETCHES:     530102 LATE PREFETCHES: 441630 DROPPED PREFETCHES: 39771
L2C AVERAGE MISS LATENCY: 77.1625 cycles
LLC0 TOTAL     ACCESS: 1933713  HIT: 1294465  MISS: 639248  HIT %: 66.9419  MISS %: 33.0581  AVERAGE MISS PENALTY: 116.032
LLC0 LOAD      ACCESS: 1016757  HIT: 907327  MISS: 109430  HIT %: 89.2373  MISS %: 10.7627  AVERAGE MISS PENALTY: 131.155
LLC0 RFO       ACCESS: 44805  HIT: 44447  MISS:   358  HIT %: 99.201  MISS %: 0.799018  AVERAGE MISS PENALTY: 183.958
LLC0 PREFETCH  ACCESS: 786129  HIT: 257271  MISS: 528858  HIT %: 32.7263  MISS %: 67.2737  AVERAGE MISS PENALTY: 112.989
LLC0 WRITEBACK ACCESS: 86022  HIT: 85420  MISS:   602  HIT %: 99.3002  MISS %: 0.699821  AVERAGE MISS PENALTY: 0
LLC0 PREFETCH  REQUESTED:     0  ISSUED:     0  USEFUL: 16463  USELESS: 513531
 USEFUL LOAD PREFETCHES:      16463 PREFETCH ISSUED TO LOWER LEVEL:     528858  ACCURACY: 3.11293
 TIMELY PREFETCHES:      16463 LATE PREFETCHES: 0 DROPPED PREFETCHES: 0
LLC0 AVERAGE MISS LATENCY: 116.032 cycles
Deadblocks : 101813 Deadblock percentage : 93.0394

LLC1 TOTAL     ACCESS: 1874823  HIT: 1234805  MISS: 640018  HIT %: 65.8625  MISS %: 34.1375  AVERAGE MISS PENALTY: 116.611
LLC1 LOAD      ACCESS: 951039  HIT: 861845  MISS: 89194  HIT %: 90.6214  MISS %: 9.37858  AVERAGE MISS PENALTY: 140.123
LLC1 RFO       ACCESS: 33154  HIT: 32843  MISS:   311  HIT %: 99.062  MISS %: 0.938047  AVERAGE MISS PENALTY: 182.733
LLC1 PREFETCH  ACCESS: 822015  HIT: 272022  MISS: 549993  HIT %: 33.0921  MISS %: 66.9079  AVERAGE MISS PENALTY: 112.87
LLC1 WRITEBACK ACCESS: 68615  HIT: 68095  MISS:   520  HIT %: 99.2421  MISS %: 0.757852  AVERAGE MISS PENALTY: 0
LLC1 PREFETCH  REQUESTED:     0  ISSUED:     0  USEFUL: 17257  USELESS: 537160
 USEFUL LOAD PREFETCHES:      17257 PREFETCH ISSUED TO LOWER LEVEL:     549993  ACCURACY: 3.13768
 TIMELY PREFETCHES:      17257 LATE PREFETCHES: 0 DROPPED PREFETCHES: 0
LLC1 AVERAGE MISS LATENCY: 116.611 cycles
LLC2 TOTAL     ACCESS: 1919911  HIT: 1280250  MISS: 639661  HIT %: 66.6828  MISS %: 33.3172  AVERAGE MISS PENALTY: 117.275
LLC2 LOAD      ACCESS: 961022  HIT: 887074  MISS: 73948  HIT %: 92.3053  MISS %: 7.69472  AVERAGE MISS PENALTY: 148.635
LLC2 RFO       ACCESS: 41720  HIT: 41402  MISS:   318  HIT %: 99.2378  MISS %: 0.762224  AVERAGE MISS PENALTY: 181.569
LLC2 PREFETCH  ACCESS: 835440  HIT: 270657  MISS: 564783  HIT %: 32.3969  MISS %: 67.6031  AVERAGE MISS PENALTY: 113.26
LLC2 WRITEBACK ACCESS: 81729  HIT: 81117  MISS:   612  HIT %: 99.2512  MISS %: 0.748816  AVERAGE MISS PENALTY: 0
LLC2 PREFETCH  REQUESTED:     0  ISSUED:     0  USEFUL: 17078  USELESS: 551727
 USEFUL LOAD PREFETCHES:      17078 PREFETCH ISSUED TO LOWER LEVEL:     564783  ACCURACY: 3.02382
 TIMELY PREFETCHES:      17078 LATE PREFETCHES: 0 DROPPED PREFETCHES: 0
LLC2 AVERAGE MISS LATENCY: 117.275 cycles
LLC3 TOTAL     ACCESS: 1927615  HIT: 1287998  MISS: 639617  HIT %: 66.8182  MISS %: 33.1818  AVERAGE MISS PENALTY: 115.445
LLC3 LOAD      ACCESS: 955769  HIT: 892191  MISS: 63578  HIT %: 93.348  MISS %: 6.65203  AVERAGE MISS PENALTY: 156.733
LLC3 RFO       ACCESS: 41416  HIT: 41048  MISS:   368  HIT %: 99.1115  MISS %: 0.888545  AVERAGE MISS PENALTY: 182.071
LLC3 PREFETCH  ACCESS: 845591  HIT: 270548  MISS: 575043  HIT %: 31.9951  MISS %: 68.0049  AVERAGE MISS PENALTY: 110.964
LLC3 WRITEBACK ACCESS: 84839  HIT: 84211  MISS:   628  HIT %: 99.2598  MISS %: 0.740226  AVERAGE MISS PENALTY: 0
LLC3 PREFETCH  REQUESTED:     0  ISSUED:     0  USEFUL: 18172  USELESS: 560295
 USEFUL LOAD PREFETCHES:      18172 PREFETCH ISSUED TO LOWER LEVEL:     575043  ACCURACY: 3.16011
 TIMELY PREFETCHES:      18172 LATE PREFETCHES: 0 DROPPED PREFETCHES: 0
LLC3 AVERAGE MISS LATENCY: 115.445 cycles
LLC4 TOTAL     ACCESS: 1924994  HIT: 1284687  MISS: 640307  HIT %: 66.7372  MISS %: 33.2628  AVERAGE MISS PENALTY: 114.07
LLC4 LOAD      ACCESS: 941745  HIT: 886358  MISS: 55387  HIT %: 94.1187  MISS %: 5.88132  AVERAGE MISS PENALTY: 161.6
LLC4 RFO       ACCESS: 42751  HIT: 42440  MISS:   311  HIT %: 99.2725  MISS %: 0.727468  AVERAGE MISS PENALTY: 183.18
LLC4 PREFETCH  ACCESS: 855300  HIT: 271372  MISS: 583928  HIT %: 31.7283  MISS %: 68.2717  AVERAGE MISS PENALTY: 109.658
LLC4 WRITEBACK ACCESS: 85198  HIT: 84517  MISS:   681  HIT %: 99.2007  MISS %: 0.799315  AVERAGE MISS PENALTY: 0
LLC4 PREFETCH  REQUESTED:     0  ISSUED:     0  USEFUL: 17629  USELESS: 569127
 USEFUL LOAD PREFETCHES:      17629 PREFETCH ISSUED TO LOWER LEVEL:     583929  ACCURACY: 3.01903
 TIMELY PREFETCHES:      17629 LATE PREFETCHES: 0 DROPPED PREFETCHES: 0
LLC4 AVERAGE MISS LATENCY: 114.07 cycles
LLC5 TOTAL     ACCESS: 1913867  HIT: 1273441  MISS: 640426  HIT %: 66.5376  MISS %: 33.4624  AVERAGE MISS PENALTY: 113.279
LLC5 LOAD      ACCESS: 920463  HIT: 872152  MISS: 48311  HIT %: 94.7514  MISS %: 5.24855  AVERAGE MISS PENALTY: 167.489
LLC5 RFO       ACCESS: 40550  HIT: 40243  MISS:   307  HIT %: 99.2429  MISS %: 0.75709  AVERAGE MISS PENALTY: 182.723
LLC5 PREFETCH  ACCESS: 871694  HIT: 280490  MISS: 591204  HIT %: 32.1776  MISS %: 67.8224  AVERAGE MISS PENALTY: 108.929
LLC5 WRITEBACK ACCESS: 81160  HIT: 80556  MISS:   604  HIT %: 99.2558  MISS %: 0.744209  AVERAGE MISS PENALTY: 0
LLC5 PREFETCH  REQUESTED:     0  ISSUED:     0  USEFUL: 18810  USELESS: 574594
 USEFUL LOAD PREFETCHES:      18810 PREFETCH ISSUED TO LOWER LEVEL:     591204  ACCURACY: 3.18164
 TIMELY PREFETCHES:      18810 LATE PREFETCHES: 0 DROPPED PREFETCHES: 0
LLC5 AVERAGE MISS LATENCY: 113.279 cycles
LLC6 TOTAL     ACCESS: 1954914  HIT: 1314814  MISS: 640100  HIT %: 67.2569  MISS %: 32.7431  AVERAGE MISS PENALTY: 113.645
LLC6 LOAD      ACCESS: 949179  HIT: 905209  MISS: 43970  HIT %: 95.3676  MISS %: 4.63242  AVERAGE MISS PENALTY: 172.697
LLC6 RFO       ACCESS: 50349  HIT: 50004  MISS:   345  HIT %: 99.3148  MISS %: 0.685217  AVERAGE MISS PENALTY: 181.075
LLC6 PREFETCH  ACCESS: 865131  HIT: 270028  MISS: 595103  HIT %: 31.2124  MISS %: 68.7876  AVERAGE MISS PENALTY: 109.373
LLC6 WRITEBACK ACCESS: 90255  HIT: 89573  MISS:   682  HIT %: 99.2444  MISS %: 0.755637  AVERAGE MISS PENALTY: 0
LLC6 PREFETCH  REQUESTED:     0  ISSUED:     0  USEFUL: 18329  USELESS: 578470
 USEFUL LOAD PREFETCHES:      18329 PREFETCH ISSUED TO LOWER LEVEL:     595103  ACCURACY: 3.07997
 TIMELY PREFETCHES:      18329 LATE PREFETCHES: 0 DROPPED PREFETCHES: 0
LLC6 AVERAGE MISS LATENCY: 113.645 cycles
LLC7 TOTAL     ACCESS: 1961995  HIT: 1321027  MISS: 640968  HIT %: 67.3308  MISS %: 32.6692  AVERAGE MISS PENALTY: 113.965
LLC7 LOAD      ACCESS: 945205  HIT: 904868  MISS: 40337  HIT %: 95.7325  MISS %: 4.26754  AVERAGE MISS PENALTY: 177.477
LLC7 RFO       ACCESS: 47757  HIT: 47365  MISS:   392  HIT %: 99.1792  MISS %: 0.820822  AVERAGE MISS PENALTY: 183.962
LLC7 PREFETCH  ACCESS: 876409  HIT: 276851  MISS: 599558  HIT %: 31.5892  MISS %: 68.4108  AVERAGE MISS PENALTY: 109.776
LLC7 WRITEBACK ACCESS: 92624  HIT: 91943  MISS:   681  HIT %: 99.2648  MISS %: 0.735231  AVERAGE MISS PENALTY: 0
LLC7 PREFETCH  REQUESTED:     0  ISSUED:     0  USEFUL: 18997  USELESS: 581673
 USEFUL LOAD PREFETCHES:      18997 PREFETCH ISSUED TO LOWER LEVEL:     599558  ACCURACY: 3.1685
 TIMELY PREFETCHES:      18997 LATE PREFETCHES: 0 DROPPED PREFETCHES: 0
LLC7 AVERAGE MISS LATENCY: 113.965 cycles
ROI Average ROB Stall Cycles:	8.32785
ROI Total ROB Stalls Cycles:	578870636
ROI TOTAL ROB counter      :	69510224
ROI Average Load ROB Stall Cycles:	12.6664
ROI Total Load ROB Stalls Cycle  :	185569836
ROI Total Load ROB stalls Counter:	14650559
Major fault: 0 Minor fault: 132834

