
*** ChampSim Multicore Out-of-Order Simulator ***

Warmup Instructions: 200000000
Simulation Instructions: 200000000
Number of CPUs: 1
threads:1

L1I Configuration:
L1I_SET:64
L1I_WAY:8
L1I_RQ_SIZE:64
L1I_WQ_SIZE:64
L1I_PQ_SIZE:8
L1I_MSHR_SIZE:8

L1D Configuration:
L1D_SET:64
L1D_WAY:12
L1D_RQ_SIZE:64
L1D_WQ_SIZE:64
L1D_PQ_SIZE:8
L1D_MSHR_SIZE:16

L2C Configuration:
L2C_SET:1024
L2C_WAY:8
L2C_RQ_SIZE:32
L2C_WQ_SIZE:32
L2C_PQ_SIZE:16
L2C_MSHR_SIZE:32

LLC Configuration:
LLC_SET:4096
LLC_WAY:16
LLC SLICES:8
LLC_RQ_SIZE:64
LLC_WQ_SIZE:64
LLC_PQ_SIZE:32
LLC_MSHR_SIZE:64

Interconnect OFF
Attacker deprioritize is: OFF
Off-chip DRAM Size: 4096 MB Channels: 1 Width: 64-bit Data Rate: 3200 MT/s
PAGE SIZE in KB: 4.000000 
PAGE SIZE in MB: 0.003906 
PAGE offset in bits: 12 
CEASER-S_LLC:0
MIRAGE : 1
CEASER_LATENCY:3
REMAP : OFF
Partitions : 1
Multi-Step : OFF
BFS : OFF

CPU 0 runs /home/anubhav/spec_2017/605.mcf_s-782B.champsimtrace.xz
CPU 0 Bimodal branch predictor
Initialize Hawkeye state
Initialize Hawkeye state
Initialize Hawkeye state
Initialize Hawkeye state
Initialize Hawkeye state
Initialize Hawkeye state
Initialize Hawkeye state
Initialize Hawkeye state
Heartbeat CPU 0 instructions: 10000000 cycles: 8717940 heartbeat IPC: 1.14706 cumulative IPC: 1.14706 (Simulation time: 0 hr 3 min 5 sec) 
 Total Blocks : 524288 Invalid Blocks : 158653
Heartbeat CPU 0 instructions: 20000003 cycles: 17031682 heartbeat IPC: 1.20283 cumulative IPC: 1.17428 (Simulation time: 0 hr 8 min 28 sec) 
 Total Blocks : 524288 Invalid Blocks : 51661
Heartbeat CPU 0 instructions: 30000000 cycles: 25736351 heartbeat IPC: 1.14881 cumulative IPC: 1.16567 (Simulation time: 0 hr 15 min 53 sec) 
 Total Blocks : 524288 Invalid Blocks : 15350
Heartbeat CPU 0 instructions: 40000001 cycles: 34279889 heartbeat IPC: 1.17048 cumulative IPC: 1.16686 (Simulation time: 0 hr 24 min 3 sec) 
 Total Blocks : 524288 Invalid Blocks : 4729
Heartbeat CPU 0 instructions: 50000000 cycles: 42922255 heartbeat IPC: 1.15709 cumulative IPC: 1.1649 (Simulation time: 0 hr 32 min 33 sec) 
 Total Blocks : 524288 Invalid Blocks : 1445
Heartbeat CPU 0 instructions: 60000002 cycles: 51256576 heartbeat IPC: 1.19986 cumulative IPC: 1.17058 (Simulation time: 0 hr 41 min 53 sec) 
 Total Blocks : 524288 Invalid Blocks : 448
Heartbeat CPU 0 instructions: 70000001 cycles: 59609316 heartbeat IPC: 1.19721 cumulative IPC: 1.17431 (Simulation time: 0 hr 52 min 31 sec) 
 Total Blocks : 524288 Invalid Blocks : 154
Heartbeat CPU 0 instructions: 80000001 cycles: 68048025 heartbeat IPC: 1.18502 cumulative IPC: 1.17564 (Simulation time: 1 hr 3 min 20 sec) 
 Total Blocks : 524288 Invalid Blocks : 62
Heartbeat CPU 0 instructions: 90000002 cycles: 76806605 heartbeat IPC: 1.14174 cumulative IPC: 1.17177 (Simulation time: 1 hr 16 min 59 sec) 
 Total Blocks : 524288 Invalid Blocks : 14
Heartbeat CPU 0 instructions: 100000000 cycles: 85730161 heartbeat IPC: 1.12063 cumulative IPC: 1.16645 (Simulation time: 1 hr 30 min 14 sec) 
 Total Blocks : 524288 Invalid Blocks : 3
Heartbeat CPU 0 instructions: 110000000 cycles: 94838824 heartbeat IPC: 1.09786 cumulative IPC: 1.15986 (Simulation time: 1 hr 44 min 10 sec) 
 Total Blocks : 524288 Invalid Blocks : 0
Heartbeat CPU 0 instructions: 120000003 cycles: 103765623 heartbeat IPC: 1.12022 cumulative IPC: 1.15645 (Simulation time: 1 hr 58 min 6 sec) 
 Total Blocks : 524288 Invalid Blocks : 0
Heartbeat CPU 0 instructions: 130000002 cycles: 112135176 heartbeat IPC: 1.19481 cumulative IPC: 1.15932 (Simulation time: 2 hr 13 min 34 sec) 
 Total Blocks : 524288 Invalid Blocks : 0
Heartbeat CPU 0 instructions: 140000000 cycles: 120479066 heartbeat IPC: 1.19848 cumulative IPC: 1.16203 (Simulation time: 2 hr 27 min 12 sec) 
 Total Blocks : 524288 Invalid Blocks : 0
Heartbeat CPU 0 instructions: 150000003 cycles: 128918447 heartbeat IPC: 1.18492 cumulative IPC: 1.16353 (Simulation time: 2 hr 39 min 38 sec) 
 Total Blocks : 524288 Invalid Blocks : 0
Heartbeat CPU 0 instructions: 160000001 cycles: 137347781 heartbeat IPC: 1.18633 cumulative IPC: 1.16493 (Simulation time: 2 hr 51 min 59 sec) 
 Total Blocks : 524288 Invalid Blocks : 0
Heartbeat CPU 0 instructions: 170000000 cycles: 145757569 heartbeat IPC: 1.18909 cumulative IPC: 1.16632 (Simulation time: 3 hr 1 min 55 sec) 
 Total Blocks : 524288 Invalid Blocks : 0
Heartbeat CPU 0 instructions: 180000001 cycles: 154115629 heartbeat IPC: 1.19645 cumulative IPC: 1.16795 (Simulation time: 3 hr 12 min 8 sec) 
 Total Blocks : 524288 Invalid Blocks : 0
Heartbeat CPU 0 instructions: 190000000 cycles: 162948748 heartbeat IPC: 1.1321 cumulative IPC: 1.16601 (Simulation time: 3 hr 23 min 1 sec) 
 Total Blocks : 524288 Invalid Blocks : 0
Heartbeat CPU 0 instructions: 200000001 cycles: 171820601 heartbeat IPC: 1.12716 cumulative IPC: 1.164 (Simulation time: 3 hr 36 min 6 sec) 
 Total Blocks : 524288 Invalid Blocks : 0

Warmup complete CPU 0 instructions: 200000001 cycles: 171820601 (Simulation time: 3 hr 36 min 6 sec) 

Heartbeat CPU 0 instructions: 210000002 cycles: 212923441 heartbeat IPC: 0.243292 cumulative IPC: 0.243292 (Simulation time: 3 hr 53 min 16 sec) 
 Total Blocks : 524288 Invalid Blocks : 0
Heartbeat CPU 0 instructions: 220000000 cycles: 253672302 heartbeat IPC: 0.245406 cumulative IPC: 0.244344 (Simulation time: 4 hr 9 min 42 sec) 
 Total Blocks : 524288 Invalid Blocks : 0
Heartbeat CPU 0 instructions: 230000000 cycles: 294452822 heartbeat IPC: 0.245215 cumulative IPC: 0.244634 (Simulation time: 4 hr 26 min 29 sec) 
 Total Blocks : 524288 Invalid Blocks : 0
Heartbeat CPU 0 instructions: 240000000 cycles: 335190111 heartbeat IPC: 0.245475 cumulative IPC: 0.244844 (Simulation time: 4 hr 43 min 24 sec) 
 Total Blocks : 524288 Invalid Blocks : 0
Heartbeat CPU 0 instructions: 250000002 cycles: 375439517 heartbeat IPC: 0.248451 cumulative IPC: 0.245557 (Simulation time: 5 hr 0 min 52 sec) 
 Total Blocks : 524288 Invalid Blocks : 0
Heartbeat CPU 0 instructions: 260000001 cycles: 414995012 heartbeat IPC: 0.252809 cumulative IPC: 0.246736 (Simulation time: 5 hr 15 min 51 sec) 
 Total Blocks : 524288 Invalid Blocks : 0
Heartbeat CPU 0 instructions: 270000001 cycles: 453555630 heartbeat IPC: 0.259332 cumulative IPC: 0.24846 (Simulation time: 5 hr 30 min 55 sec) 
 Total Blocks : 524288 Invalid Blocks : 0
Heartbeat CPU 0 instructions: 280000000 cycles: 493178467 heartbeat IPC: 0.25238 cumulative IPC: 0.248944 (Simulation time: 5 hr 45 min 49 sec) 
 Total Blocks : 524288 Invalid Blocks : 0
Heartbeat CPU 0 instructions: 290000001 cycles: 531879814 heartbeat IPC: 0.258389 cumulative IPC: 0.249959 (Simulation time: 6 hr 1 min 47 sec) 
 Total Blocks : 524288 Invalid Blocks : 0
Heartbeat CPU 0 instructions: 300000000 cycles: 570953110 heartbeat IPC: 0.255929 cumulative IPC: 0.250543 (Simulation time: 6 hr 17 min 24 sec) 
 Total Blocks : 524288 Invalid Blocks : 0
Heartbeat CPU 0 instructions: 310000001 cycles: 609587861 heartbeat IPC: 0.258834 cumulative IPC: 0.251275 (Simulation time: 6 hr 33 min 12 sec) 
 Total Blocks : 524288 Invalid Blocks : 0
Heartbeat CPU 0 instructions: 320000001 cycles: 647391271 heartbeat IPC: 0.264526 cumulative IPC: 0.252328 (Simulation time: 6 hr 50 min 3 sec) 
 Total Blocks : 524288 Invalid Blocks : 0
Heartbeat CPU 0 instructions: 330000000 cycles: 685451325 heartbeat IPC: 0.262743 cumulative IPC: 0.2531 (Simulation time: 7 hr 7 min 20 sec) 
 Total Blocks : 524288 Invalid Blocks : 0
Heartbeat CPU 0 instructions: 340000000 cycles: 725180239 heartbeat IPC: 0.251706 cumulative IPC: 0.253 (Simulation time: 7 hr 24 min 33 sec) 
 Total Blocks : 524288 Invalid Blocks : 0
Heartbeat CPU 0 instructions: 350000000 cycles: 763781622 heartbeat IPC: 0.259058 cumulative IPC: 0.253395 (Simulation time: 7 hr 42 min 47 sec) 
 Total Blocks : 524288 Invalid Blocks : 0
Heartbeat CPU 0 instructions: 360000000 cycles: 802062747 heartbeat IPC: 0.261225 cumulative IPC: 0.253871 (Simulation time: 8 hr 1 min 32 sec) 
 Total Blocks : 524288 Invalid Blocks : 0
Heartbeat CPU 0 instructions: 370000001 cycles: 840399086 heartbeat IPC: 0.260849 cumulative IPC: 0.254271 (Simulation time: 8 hr 20 min 16 sec) 
 Total Blocks : 524288 Invalid Blocks : 0
Heartbeat CPU 0 instructions: 380000002 cycles: 880977804 heartbeat IPC: 0.246435 cumulative IPC: 0.253822 (Simulation time: 8 hr 38 min 54 sec) 
 Total Blocks : 524288 Invalid Blocks : 0
Heartbeat CPU 0 instructions: 390000001 cycles: 921438915 heartbeat IPC: 0.247151 cumulative IPC: 0.253462 (Simulation time: 8 hr 56 min 49 sec) 
 Total Blocks : 524288 Invalid Blocks : 0
Heartbeat CPU 0 instructions: 400000000 cycles: 958838186 heartbeat IPC: 0.267385 cumulative IPC: 0.254124 (Simulation time: 9 hr 14 min 34 sec) 
 Total Blocks : 524288 Invalid Blocks : 0
Finished CPU 0 instructions: 200000002 cycles: 787017587 cumulative IPC: 0.254124 (Simulation time: 9 hr 14 min 34 sec) 

CPU 0 Branch Prediction Accuracy: 96.2028% MPKI: 11.179 Average ROB Occupancy at Mispredict: 70.5317

ChampSim completed all CPUs

Region of Interest Statistics

CPU 0 cumulative IPC: 0.254124 instructions: 200000002 cycles: 787017587
ITLB TOTAL     ACCESS: 29992897  HIT: 29992897  MISS:     0  HIT %:   100  MISS %:     0  AVERAGE MISS PENALTY: 0
ITLB LOAD      ACCESS: 29992897  HIT: 29992897  MISS:     0  HIT %:   100  MISS %:     0  AVERAGE MISS PENALTY: 0
ITLB RFO       ACCESS:     0  HIT:     0  MISS:     0  HIT %:     0  MISS %:     0  AVERAGE MISS PENALTY: 0
ITLB PREFETCH  ACCESS:     0  HIT:     0  MISS:     0  HIT %:     0  MISS %:     0  AVERAGE MISS PENALTY: 0
ITLB WRITEBACK ACCESS:     0  HIT:     0  MISS:     0  HIT %:     0  MISS %:     0  AVERAGE MISS PENALTY: 0
ITLB PREFETCH  REQUESTED:     0  ISSUED:     0  USEFUL:     0  USELESS:     0
 USEFUL LOAD PREFETCHES:          0 PREFETCH ISSUED TO LOWER LEVEL:          0  ACCURACY: -nan
 TIMELY PREFETCHES:          0 LATE PREFETCHES: 0 DROPPED PREFETCHES: 0
ITLB AVERAGE MISS LATENCY: -nan cycles
DTLB TOTAL     ACCESS: 41106215  HIT: 23932265  MISS: 17173950  HIT %: 58.2206  MISS %: 41.7794  AVERAGE MISS PENALTY: 11.0392
DTLB LOAD      ACCESS: 38501090  HIT: 21439794  MISS: 17061296  HIT %: 55.6862  MISS %: 44.3138  AVERAGE MISS PENALTY: 11.0292
DTLB RFO       ACCESS: 2605125  HIT: 2492471  MISS: 112654  HIT %: 95.6757  MISS %: 4.32432  AVERAGE MISS PENALTY: 12.5431
DTLB PREFETCH  ACCESS:     0  HIT:     0  MISS:     0  HIT %:     0  MISS %:     0  AVERAGE MISS PENALTY: 0
DTLB WRITEBACK ACCESS:     0  HIT:     0  MISS:     0  HIT %:     0  MISS %:     0  AVERAGE MISS PENALTY: 0
DTLB PREFETCH  REQUESTED:     0  ISSUED:     0  USEFUL:     0  USELESS:     0
 USEFUL LOAD PREFETCHES:          0 PREFETCH ISSUED TO LOWER LEVEL:          0  ACCURACY: -nan
 TIMELY PREFETCHES:          0 LATE PREFETCHES: 0 DROPPED PREFETCHES: 0
DTLB AVERAGE MISS LATENCY: 11.0392 cycles
STLB TOTAL     ACCESS: 17173950  HIT: 16934089  MISS: 239861  HIT %: 98.6033  MISS %: 1.39666  AVERAGE MISS PENALTY: 100
STLB LOAD      ACCESS: 17061296  HIT: 16825187  MISS: 236109  HIT %: 98.6161  MISS %: 1.38389  AVERAGE MISS PENALTY: 100
STLB RFO       ACCESS: 112654  HIT: 108902  MISS:  3752  HIT %: 96.6694  MISS %: 3.33055  AVERAGE MISS PENALTY: 100
STLB PREFETCH  ACCESS:     0  HIT:     0  MISS:     0  HIT %:     0  MISS %:     0  AVERAGE MISS PENALTY: 0
STLB WRITEBACK ACCESS:     0  HIT:     0  MISS:     0  HIT %:     0  MISS %:     0  AVERAGE MISS PENALTY: 0
STLB PREFETCH  REQUESTED:     0  ISSUED:     0  USEFUL:     0  USELESS:     0
 USEFUL LOAD PREFETCHES:          0 PREFETCH ISSUED TO LOWER LEVEL:          0  ACCURACY: -nan
 TIMELY PREFETCHES:          0 LATE PREFETCHES: 0 DROPPED PREFETCHES: 0
STLB AVERAGE MISS LATENCY: 100 cycles
L1D TOTAL     ACCESS: 83021180  HIT: 50328968  MISS: 32692212  HIT %: 60.6218  MISS %: 39.3782  AVERAGE MISS PENALTY: 2.44467e+07
L1D LOAD      ACCESS: 43368931  HIT: 22334599  MISS: 21034332  HIT %: 51.4991  MISS %: 48.5009  AVERAGE MISS PENALTY: 3.79939e+07
L1D RFO       ACCESS: 3836716  HIT: 3755669  MISS: 81047  HIT %: 97.8876  MISS %: 2.11241  AVERAGE MISS PENALTY: 473343
L1D PREFETCH  ACCESS: 35815533  HIT: 24238700  MISS: 11576833  HIT %: 67.6765  MISS %: 32.3235  AVERAGE MISS PENALTY: 81.563
L1D WRITEBACK ACCESS:     0  HIT:     0  MISS:     0  HIT %:     0  MISS %:     0  AVERAGE MISS PENALTY: 0
L1D PREFETCH  REQUESTED: 76438309  ISSUED: 70095867  USEFUL: 9041173  USELESS: 2535727
 USEFUL LOAD PREFETCHES:    9041173 PREFETCH ISSUED TO LOWER LEVEL:   24184301  ACCURACY: 37.3845
 TIMELY PREFETCHES:    9041173 LATE PREFETCHES: 2537842 DROPPED PREFETCHES: 6342442
L1D AVERAGE MISS LATENCY: 1240.37 cycles
L1I TOTAL     ACCESS: 32215197  HIT: 32215197  MISS:     0  HIT %:   100  MISS %:     0  AVERAGE MISS PENALTY: 0
L1I LOAD      ACCESS: 32215197  HIT: 32215197  MISS:     0  HIT %:   100  MISS %:     0  AVERAGE MISS PENALTY: 0
L1I RFO       ACCESS:     0  HIT:     0  MISS:     0  HIT %:     0  MISS %:     0  AVERAGE MISS PENALTY: 0
L1I PREFETCH  ACCESS:     0  HIT:     0  MISS:     0  HIT %:     0  MISS %:     0  AVERAGE MISS PENALTY: 0
L1I WRITEBACK ACCESS:     0  HIT:     0  MISS:     0  HIT %:     0  MISS %:     0  AVERAGE MISS PENALTY: 0
L1I PREFETCH  REQUESTED:     0  ISSUED:     0  USEFUL:     0  USELESS:     0
 USEFUL LOAD PREFETCHES:          0 PREFETCH ISSUED TO LOWER LEVEL:          0  ACCURACY: -nan
 TIMELY PREFETCHES:          0 LATE PREFETCHES: 0 DROPPED PREFETCHES: 0
L1I AVERAGE MISS LATENCY: -nan cycles
L2C TOTAL     ACCESS: 42326734  HIT: 12106950  MISS: 30219784  HIT %: 28.6036  MISS %: 71.3964  AVERAGE MISS PENALTY: 1.02583e+07
L2C LOAD      ACCESS: 20752854  HIT: 3379574  MISS: 17373280  HIT %: 16.2849  MISS %: 83.7151  AVERAGE MISS PENALTY: 1.78429e+07
L2C RFO       ACCESS: 80983  HIT: 11543  MISS: 69440  HIT %: 14.2536  MISS %: 85.7464  AVERAGE MISS PENALTY: 177946
L2C PREFETCH  ACCESS: 20915166  HIT: 8138136  MISS: 12777030  HIT %: 38.9102  MISS %: 61.0898  AVERAGE MISS PENALTY: 140.526
L2C WRITEBACK ACCESS: 577731  HIT: 577697  MISS:    34  HIT %: 99.9941  MISS %: 0.00588509  AVERAGE MISS PENALTY: 0
L2C PREFETCH  REQUESTED: 33617766  ISSUED: 33597033  USEFUL: 567802  USELESS: 12210218
 USEFUL LOAD PREFETCHES:     567802 PREFETCH ISSUED TO LOWER LEVEL:   17197102  ACCURACY: 3.30173
 TIMELY PREFETCHES:     567802 LATE PREFETCHES: 1200658 DROPPED PREFETCHES: 20733
L2C AVERAGE MISS LATENCY: 84.2661 cycles
LLC0 TOTAL     ACCESS: 3819379  HIT: 2312316  MISS: 1507063  HIT %: 60.5417  MISS %: 39.4583  AVERAGE MISS PENALTY: 119.25
LLC0 LOAD      ACCESS: 2230781  HIT: 1940605  MISS: 290176  HIT %: 86.9922  MISS %: 13.0078  AVERAGE MISS PENALTY: 138.015
LLC0 RFO       ACCESS:  9331  HIT:  8936  MISS:   395  HIT %: 95.7668  MISS %: 4.2332  AVERAGE MISS PENALTY: 177.271
LLC0 PREFETCH  ACCESS: 1510341  HIT: 294261  MISS: 1216080  HIT %: 19.4831  MISS %: 80.5169  AVERAGE MISS PENALTY: 114.794
LLC0 WRITEBACK ACCESS: 68926  HIT: 68514  MISS:   412  HIT %: 99.4023  MISS %: 0.597743  AVERAGE MISS PENALTY: 0
LLC0 PREFETCH  REQUESTED:     0  ISSUED:     0  USEFUL: 14753  USELESS: 1201873
 USEFUL LOAD PREFETCHES:      14753 PREFETCH ISSUED TO LOWER LEVEL:    1216080  ACCURACY: 1.21316
 TIMELY PREFETCHES:      14753 LATE PREFETCHES: 0 DROPPED PREFETCHES: 0
LLC0 AVERAGE MISS LATENCY: 119.25 cycles
Deadblocks : 271781 Deadblock percentage : 93.6607

LLC1 TOTAL     ACCESS: 3835381  HIT: 2324343  MISS: 1511038  HIT %: 60.6027  MISS %: 39.3973  AVERAGE MISS PENALTY: 120.138
LLC1 LOAD      ACCESS: 2183652  HIT: 1939551  MISS: 244101  HIT %: 88.8214  MISS %: 11.1786  AVERAGE MISS PENALTY: 146.041
LLC1 RFO       ACCESS:  8859  HIT:  8461  MISS:   398  HIT %: 95.5074  MISS %: 4.49261  AVERAGE MISS PENALTY: 176.038
LLC1 PREFETCH  ACCESS: 1579419  HIT: 313215  MISS: 1266204  HIT %: 19.831  MISS %: 80.169  AVERAGE MISS PENALTY: 115.159
LLC1 WRITEBACK ACCESS: 63451  HIT: 63116  MISS:   335  HIT %: 99.472  MISS %: 0.527966  AVERAGE MISS PENALTY: 0
LLC1 PREFETCH  REQUESTED:     0  ISSUED:     0  USEFUL: 15791  USELESS: 1253991
 USEFUL LOAD PREFETCHES:      15791 PREFETCH ISSUED TO LOWER LEVEL:    1266204  ACCURACY: 1.24711
 TIMELY PREFETCHES:      15791 LATE PREFETCHES: 0 DROPPED PREFETCHES: 0
LLC1 AVERAGE MISS LATENCY: 120.138 cycles
LLC2 TOTAL     ACCESS: 3869896  HIT: 2359072  MISS: 1510824  HIT %: 60.9596  MISS %: 39.0404  AVERAGE MISS PENALTY: 120.711
LLC2 LOAD      ACCESS: 2167380  HIT: 1956773  MISS: 210607  HIT %: 90.2829  MISS %: 9.71712  AVERAGE MISS PENALTY: 152.768
LLC2 RFO       ACCESS:  9528  HIT:  9097  MISS:   431  HIT %: 95.4765  MISS %: 4.52351  AVERAGE MISS PENALTY: 177.23
LLC2 PREFETCH  ACCESS: 1625151  HIT: 325715  MISS: 1299436  HIT %: 20.0421  MISS %: 79.9579  AVERAGE MISS PENALTY: 115.529
LLC2 WRITEBACK ACCESS: 67837  HIT: 67487  MISS:   350  HIT %: 99.4841  MISS %: 0.515943  AVERAGE MISS PENALTY: 0
LLC2 PREFETCH  REQUESTED:     0  ISSUED:     0  USEFUL: 16092  USELESS: 1286598
 USEFUL LOAD PREFETCHES:      16092 PREFETCH ISSUED TO LOWER LEVEL:    1299436  ACCURACY: 1.23838
 TIMELY PREFETCHES:      16092 LATE PREFETCHES: 0 DROPPED PREFETCHES: 0
LLC2 AVERAGE MISS LATENCY: 120.711 cycles
LLC3 TOTAL     ACCESS: 3843251  HIT: 2331396  MISS: 1511855  HIT %: 60.6621  MISS %: 39.3379  AVERAGE MISS PENALTY: 119.127
LLC3 LOAD      ACCESS: 2096651  HIT: 1909071  MISS: 187580  HIT %: 91.0534  MISS %: 8.94665  AVERAGE MISS PENALTY: 159.41
LLC3 RFO       ACCESS:  8600  HIT:  8229  MISS:   371  HIT %: 95.686  MISS %: 4.31395  AVERAGE MISS PENALTY: 179.348
LLC3 PREFETCH  ACCESS: 1662195  HIT: 338730  MISS: 1323465  HIT %: 20.3785  MISS %: 79.6215  AVERAGE MISS PENALTY: 113.44
LLC3 WRITEBACK ACCESS: 75805  HIT: 75366  MISS:   439  HIT %: 99.4209  MISS %: 0.579117  AVERAGE MISS PENALTY: 0
LLC3 PREFETCH  REQUESTED:     0  ISSUED:     0  USEFUL: 16228  USELESS: 1310160
 USEFUL LOAD PREFETCHES:      16228 PREFETCH ISSUED TO LOWER LEVEL:    1323465  ACCURACY: 1.22618
 TIMELY PREFETCHES:      16228 LATE PREFETCHES: 0 DROPPED PREFETCHES: 0
LLC3 AVERAGE MISS LATENCY: 119.127 cycles
LLC4 TOTAL     ACCESS: 3861319  HIT: 2349373  MISS: 1511946  HIT %: 60.8438  MISS %: 39.1562  AVERAGE MISS PENALTY: 117.73
LLC4 LOAD      ACCESS: 2109962  HIT: 1942355  MISS: 167607  HIT %: 92.0564  MISS %: 7.9436  AVERAGE MISS PENALTY: 163.863
LLC4 RFO       ACCESS:  7819  HIT:  7454  MISS:   365  HIT %: 95.3319  MISS %: 4.66812  AVERAGE MISS PENALTY: 177.132
LLC4 PREFETCH  ACCESS: 1676319  HIT: 332734  MISS: 1343585  HIT %: 19.8491  MISS %: 80.1509  AVERAGE MISS PENALTY: 111.993
LLC4 WRITEBACK ACCESS: 67219  HIT: 66830  MISS:   389  HIT %: 99.4213  MISS %: 0.578705  AVERAGE MISS PENALTY: 0
LLC4 PREFETCH  REQUESTED:     0  ISSUED:     0  USEFUL: 16199  USELESS: 1329603
 USEFUL LOAD PREFETCHES:      16199 PREFETCH ISSUED TO LOWER LEVEL:    1343585  ACCURACY: 1.20566
 TIMELY PREFETCHES:      16199 LATE PREFETCHES: 0 DROPPED PREFETCHES: 0
LLC4 AVERAGE MISS LATENCY: 117.73 cycles
LLC5 TOTAL     ACCESS: 3790596  HIT: 2279734  MISS: 1510862  HIT %: 60.1418  MISS %: 39.8582  AVERAGE MISS PENALTY: 116.789
LLC5 LOAD      ACCESS: 2024281  HIT: 1874848  MISS: 149433  HIT %: 92.618  MISS %: 7.38203  AVERAGE MISS PENALTY: 168.116
LLC5 RFO       ACCESS:  8435  HIT:  8041  MISS:   394  HIT %: 95.329  MISS %: 4.67101  AVERAGE MISS PENALTY: 178.231
LLC5 PREFETCH  ACCESS: 1692238  HIT: 331655  MISS: 1360583  HIT %: 19.5986  MISS %: 80.4014  AVERAGE MISS PENALTY: 111.173
LLC5 WRITEBACK ACCESS: 65642  HIT: 65190  MISS:   452  HIT %: 99.3114  MISS %: 0.688584  AVERAGE MISS PENALTY: 0
LLC5 PREFETCH  REQUESTED:     0  ISSUED:     0  USEFUL: 16673  USELESS: 1345463
 USEFUL LOAD PREFETCHES:      16673 PREFETCH ISSUED TO LOWER LEVEL:    1360583  ACCURACY: 1.22543
 TIMELY PREFETCHES:      16673 LATE PREFETCHES: 0 DROPPED PREFETCHES: 0
LLC5 AVERAGE MISS LATENCY: 116.789 cycles
LLC6 TOTAL     ACCESS: 3871766  HIT: 2360910  MISS: 1510856  HIT %: 60.9776  MISS %: 39.0224  AVERAGE MISS PENALTY: 117.1
LLC6 LOAD      ACCESS: 2092348  HIT: 1953279  MISS: 139069  HIT %: 93.3534  MISS %: 6.64655  AVERAGE MISS PENALTY: 172.352
LLC6 RFO       ACCESS:  8183  HIT:  7774  MISS:   409  HIT %: 95.0018  MISS %: 4.99817  AVERAGE MISS PENALTY: 176.303
LLC6 PREFETCH  ACCESS: 1711320  HIT: 340306  MISS: 1371014  HIT %: 19.8856  MISS %: 80.1144  AVERAGE MISS PENALTY: 111.509
LLC6 WRITEBACK ACCESS: 59915  HIT: 59551  MISS:   364  HIT %: 99.3925  MISS %: 0.607527  AVERAGE MISS PENALTY: 0
LLC6 PREFETCH  REQUESTED:     0  ISSUED:     0  USEFUL: 16067  USELESS: 1356071
 USEFUL LOAD PREFETCHES:      16067 PREFETCH ISSUED TO LOWER LEVEL:    1371014  ACCURACY: 1.17191
 TIMELY PREFETCHES:      16067 LATE PREFETCHES: 0 DROPPED PREFETCHES: 0
LLC6 AVERAGE MISS LATENCY: 117.1 cycles
LLC7 TOTAL     ACCESS: 3866625  HIT: 2355372  MISS: 1511253  HIT %: 60.9154  MISS %: 39.0846  AVERAGE MISS PENALTY: 117.05
LLC7 LOAD      ACCESS: 2064879  HIT: 1935545  MISS: 129334  HIT %: 93.7365  MISS %: 6.26351  AVERAGE MISS PENALTY: 175.912
LLC7 RFO       ACCESS:  8678  HIT:  8293  MISS:   385  HIT %: 95.5635  MISS %: 4.43651  AVERAGE MISS PENALTY: 175.086
LLC7 PREFETCH  ACCESS: 1723392  HIT: 342247  MISS: 1381145  HIT %: 19.8589  MISS %: 80.1411  AVERAGE MISS PENALTY: 111.555
LLC7 WRITEBACK ACCESS: 69676  HIT: 69287  MISS:   389  HIT %: 99.4417  MISS %: 0.558298  AVERAGE MISS PENALTY: 0
LLC7 PREFETCH  REQUESTED:     0  ISSUED:     0  USEFUL: 16446  USELESS: 1365390
 USEFUL LOAD PREFETCHES:      16446 PREFETCH ISSUED TO LOWER LEVEL:    1381145  ACCURACY: 1.19075
 TIMELY PREFETCHES:      16446 LATE PREFETCHES: 0 DROPPED PREFETCHES: 0
LLC7 AVERAGE MISS LATENCY: 117.05 cycles
ROI Average ROB Stall Cycles:	9.60343
ROI Total ROB Stalls Cycles:	727620461
ROI TOTAL ROB counter      :	75766712
ROI Average Load ROB Stall Cycles:	29.8813
ROI Total Load ROB Stalls Cycle  :	273037904
ROI Total Load ROB stalls Counter:	9137407
Major fault: 0 Minor fault: 341292

