
*** ChampSim Multicore Out-of-Order Simulator ***

Warmup Instructions: 200000000
Simulation Instructions: 200000000
Number of CPUs: 1
threads:1

L1I Configuration:
L1I_SET:64
L1I_WAY:8
L1I_RQ_SIZE:64
L1I_WQ_SIZE:64
L1I_PQ_SIZE:8
L1I_MSHR_SIZE:8

L1D Configuration:
L1D_SET:64
L1D_WAY:12
L1D_RQ_SIZE:64
L1D_WQ_SIZE:64
L1D_PQ_SIZE:8
L1D_MSHR_SIZE:16

L2C Configuration:
L2C_SET:1024
L2C_WAY:8
L2C_RQ_SIZE:32
L2C_WQ_SIZE:32
L2C_PQ_SIZE:16
L2C_MSHR_SIZE:32

LLC Configuration:
LLC_SET:4096
LLC_WAY:16
LLC SLICES:8
LLC_RQ_SIZE:64
LLC_WQ_SIZE:64
LLC_PQ_SIZE:32
LLC_MSHR_SIZE:64

Interconnect OFF
Attacker deprioritize is: OFF
Off-chip DRAM Size: 4096 MB Channels: 1 Width: 64-bit Data Rate: 3200 MT/s
PAGE SIZE in KB: 4.000000 
PAGE SIZE in MB: 0.003906 
PAGE offset in bits: 12 
CEASER-S_LLC:0
MIRAGE : 1
CEASER_LATENCY:3
REMAP : OFF
Partitions : 1
Multi-Step : OFF
BFS : OFF

CPU 0 runs /home/anubhav/spec_2017/605.mcf_s-994B.champsimtrace.xz
CPU 0 Bimodal branch predictor
Initialize Hawkeye state
Initialize Hawkeye state
Initialize Hawkeye state
Initialize Hawkeye state
Initialize Hawkeye state
Initialize Hawkeye state
Initialize Hawkeye state
Initialize Hawkeye state
Heartbeat CPU 0 instructions: 10000000 cycles: 8099665 heartbeat IPC: 1.23462 cumulative IPC: 1.23462 (Simulation time: 0 hr 2 min 26 sec) 
 Total Blocks : 524288 Invalid Blocks : 386205
Heartbeat CPU 0 instructions: 20000002 cycles: 16352653 heartbeat IPC: 1.21168 cumulative IPC: 1.22304 (Simulation time: 0 hr 6 min 57 sec) 
 Total Blocks : 524288 Invalid Blocks : 288266
Heartbeat CPU 0 instructions: 30000000 cycles: 24908162 heartbeat IPC: 1.16884 cumulative IPC: 1.20442 (Simulation time: 0 hr 18 min 41 sec) 
 Total Blocks : 524288 Invalid Blocks : 212172
Heartbeat CPU 0 instructions: 40000000 cycles: 33312329 heartbeat IPC: 1.18989 cumulative IPC: 1.20076 (Simulation time: 0 hr 20 min 51 sec) 
 Total Blocks : 524288 Invalid Blocks : 160233
Heartbeat CPU 0 instructions: 50000000 cycles: 45573511 heartbeat IPC: 0.815582 cumulative IPC: 1.09713 (Simulation time: 1 hr 56 min 37 sec) 
 Total Blocks : 524288 Invalid Blocks : 79349
Heartbeat CPU 0 instructions: 60000002 cycles: 54450463 heartbeat IPC: 1.12651 cumulative IPC: 1.10192 (Simulation time: 1 hr 58 min 26 sec) 
 Total Blocks : 524288 Invalid Blocks : 62117
Heartbeat CPU 0 instructions: 70000002 cycles: 63316496 heartbeat IPC: 1.1279 cumulative IPC: 1.10556 (Simulation time: 2 hr 0 min 18 sec) 
 Total Blocks : 524288 Invalid Blocks : 45043
Heartbeat CPU 0 instructions: 80000000 cycles: 71441770 heartbeat IPC: 1.23073 cumulative IPC: 1.11979 (Simulation time: 2 hr 2 min 3 sec) 
 Total Blocks : 524288 Invalid Blocks : 31612
Heartbeat CPU 0 instructions: 90000002 cycles: 79397170 heartbeat IPC: 1.25701 cumulative IPC: 1.13354 (Simulation time: 2 hr 3 min 47 sec) 
 Total Blocks : 524288 Invalid Blocks : 23548
Heartbeat CPU 0 instructions: 100000001 cycles: 87617030 heartbeat IPC: 1.21657 cumulative IPC: 1.14133 (Simulation time: 2 hr 5 min 26 sec) 
 Total Blocks : 524288 Invalid Blocks : 18687
Heartbeat CPU 0 instructions: 110000000 cycles: 96700298 heartbeat IPC: 1.10093 cumulative IPC: 1.13754 (Simulation time: 2 hr 7 min 20 sec) 
 Total Blocks : 524288 Invalid Blocks : 12048
Heartbeat CPU 0 instructions: 120000003 cycles: 105373455 heartbeat IPC: 1.15298 cumulative IPC: 1.13881 (Simulation time: 2 hr 9 min 23 sec) 
 Total Blocks : 524288 Invalid Blocks : 8932
Heartbeat CPU 0 instructions: 130000001 cycles: 113550661 heartbeat IPC: 1.22291 cumulative IPC: 1.14486 (Simulation time: 2 hr 11 min 7 sec) 
 Total Blocks : 524288 Invalid Blocks : 6037
Heartbeat CPU 0 instructions: 140000001 cycles: 122840022 heartbeat IPC: 1.0765 cumulative IPC: 1.13969 (Simulation time: 2 hr 41 min 30 sec) 
 Total Blocks : 524288 Invalid Blocks : 3570
Heartbeat CPU 0 instructions: 150000002 cycles: 132400203 heartbeat IPC: 1.04601 cumulative IPC: 1.13293 (Simulation time: 3 hr 20 min 5 sec) 
 Total Blocks : 524288 Invalid Blocks : 1983
Heartbeat CPU 0 instructions: 160000003 cycles: 140414728 heartbeat IPC: 1.24773 cumulative IPC: 1.13948 (Simulation time: 3 hr 21 min 9 sec) 
 Total Blocks : 524288 Invalid Blocks : 1417
Heartbeat CPU 0 instructions: 170000002 cycles: 148164367 heartbeat IPC: 1.29038 cumulative IPC: 1.14737 (Simulation time: 3 hr 22 min 12 sec) 
 Total Blocks : 524288 Invalid Blocks : 1163
Heartbeat CPU 0 instructions: 180000000 cycles: 159153375 heartbeat IPC: 0.91 cumulative IPC: 1.13098 (Simulation time: 3 hr 23 min 35 sec) 
 Total Blocks : 524288 Invalid Blocks : 752
Heartbeat CPU 0 instructions: 190000002 cycles: 166917602 heartbeat IPC: 1.28796 cumulative IPC: 1.13829 (Simulation time: 3 hr 24 min 37 sec) 
 Total Blocks : 524288 Invalid Blocks : 628
Heartbeat CPU 0 instructions: 200000003 cycles: 175388252 heartbeat IPC: 1.18055 cumulative IPC: 1.14033 (Simulation time: 3 hr 25 min 41 sec) 
 Total Blocks : 524288 Invalid Blocks : 487

Warmup complete CPU 0 instructions: 200000003 cycles: 175388252 (Simulation time: 3 hr 25 min 41 sec) 

Heartbeat CPU 0 instructions: 210000000 cycles: 220475511 heartbeat IPC: 0.221792 cumulative IPC: 0.221792 (Simulation time: 3 hr 29 min 12 sec) 
 Total Blocks : 524288 Invalid Blocks : 274
Heartbeat CPU 0 instructions: 220000000 cycles: 273832459 heartbeat IPC: 0.187417 cumulative IPC: 0.203161 (Simulation time: 3 hr 33 min 18 sec) 
 Total Blocks : 524288 Invalid Blocks : 182
Heartbeat CPU 0 instructions: 230000001 cycles: 307492680 heartbeat IPC: 0.297087 cumulative IPC: 0.227093 (Simulation time: 3 hr 35 min 1 sec) 
 Total Blocks : 524288 Invalid Blocks : 153
Heartbeat CPU 0 instructions: 240000002 cycles: 341312177 heartbeat IPC: 0.295687 cumulative IPC: 0.241074 (Simulation time: 3 hr 36 min 44 sec) 
 Total Blocks : 524288 Invalid Blocks : 120
Heartbeat CPU 0 instructions: 250000002 cycles: 367641540 heartbeat IPC: 0.379804 cumulative IPC: 0.260074 (Simulation time: 3 hr 38 min 16 sec) 
 Total Blocks : 524288 Invalid Blocks : 95
Heartbeat CPU 0 instructions: 260000001 cycles: 455909655 heartbeat IPC: 0.113291 cumulative IPC: 0.213887 (Simulation time: 4 hr 29 min 55 sec) 
 Total Blocks : 524288 Invalid Blocks : 6
Heartbeat CPU 0 instructions: 270000000 cycles: 565009879 heartbeat IPC: 0.0916588 cumulative IPC: 0.179661 (Simulation time: 5 hr 3 min 54 sec) 
 Total Blocks : 524288 Invalid Blocks : 0
Heartbeat CPU 0 instructions: 280000001 cycles: 607394119 heartbeat IPC: 0.235937 cumulative IPC: 0.185183 (Simulation time: 5 hr 6 min 23 sec) 
 Total Blocks : 524288 Invalid Blocks : 0
Heartbeat CPU 0 instructions: 290000000 cycles: 655876954 heartbeat IPC: 0.206259 cumulative IPC: 0.187309 (Simulation time: 5 hr 9 min 10 sec) 
 Total Blocks : 524288 Invalid Blocks : 0
Heartbeat CPU 0 instructions: 300000000 cycles: 706080653 heartbeat IPC: 0.199189 cumulative IPC: 0.188433 (Simulation time: 5 hr 11 min 54 sec) 
 Total Blocks : 524288 Invalid Blocks : 0
Heartbeat CPU 0 instructions: 310000002 cycles: 740726609 heartbeat IPC: 0.288634 cumulative IPC: 0.194574 (Simulation time: 5 hr 14 min 1 sec) 
 Total Blocks : 524288 Invalid Blocks : 0
Heartbeat CPU 0 instructions: 320000000 cycles: 778029329 heartbeat IPC: 0.268077 cumulative IPC: 0.199123 (Simulation time: 5 hr 16 min 17 sec) 
 Total Blocks : 524288 Invalid Blocks : 0
Heartbeat CPU 0 instructions: 330000000 cycles: 834081487 heartbeat IPC: 0.178405 cumulative IPC: 0.19736 (Simulation time: 5 hr 19 min 23 sec) 
 Total Blocks : 524288 Invalid Blocks : 0
Heartbeat CPU 0 instructions: 340000001 cycles: 862658811 heartbeat IPC: 0.349928 cumulative IPC: 0.203704 (Simulation time: 5 hr 21 min 22 sec) 
 Total Blocks : 524288 Invalid Blocks : 0
Heartbeat CPU 0 instructions: 350000000 cycles: 888020570 heartbeat IPC: 0.394294 cumulative IPC: 0.210487 (Simulation time: 5 hr 23 min 6 sec) 
 Total Blocks : 524288 Invalid Blocks : 0
Heartbeat CPU 0 instructions: 360000002 cycles: 936269964 heartbeat IPC: 0.207257 cumulative IPC: 0.210282 (Simulation time: 5 hr 25 min 50 sec) 
 Total Blocks : 524288 Invalid Blocks : 0
Heartbeat CPU 0 instructions: 370000002 cycles: 971337508 heartbeat IPC: 0.285164 cumulative IPC: 0.213581 (Simulation time: 5 hr 27 min 55 sec) 
 Total Blocks : 524288 Invalid Blocks : 0
Heartbeat CPU 0 instructions: 380000001 cycles: 1003589628 heartbeat IPC: 0.310057 cumulative IPC: 0.217338 (Simulation time: 5 hr 29 min 55 sec) 
 Total Blocks : 524288 Invalid Blocks : 0
Heartbeat CPU 0 instructions: 390000000 cycles: 1063937291 heartbeat IPC: 0.165706 cumulative IPC: 0.213832 (Simulation time: 5 hr 33 min 11 sec) 
 Total Blocks : 524288 Invalid Blocks : 0
Heartbeat CPU 0 instructions: 400000002 cycles: 1127402063 heartbeat IPC: 0.157568 cumulative IPC: 0.210081 (Simulation time: 5 hr 36 min 48 sec) 
 Total Blocks : 524288 Invalid Blocks : 0
Finished CPU 0 instructions: 200000000 cycles: 952013812 cumulative IPC: 0.210081 (Simulation time: 5 hr 36 min 48 sec) 

CPU 0 Branch Prediction Accuracy: 90.4105% MPKI: 18.1367 Average ROB Occupancy at Mispredict: 55.1227

ChampSim completed all CPUs

Region of Interest Statistics

CPU 0 cumulative IPC: 0.210081 instructions: 200000000 cycles: 952013812
ITLB TOTAL     ACCESS: 30965331  HIT: 30965331  MISS:     0  HIT %:   100  MISS %:     0  AVERAGE MISS PENALTY: 0
ITLB LOAD      ACCESS: 30965331  HIT: 30965331  MISS:     0  HIT %:   100  MISS %:     0  AVERAGE MISS PENALTY: 0
ITLB RFO       ACCESS:     0  HIT:     0  MISS:     0  HIT %:     0  MISS %:     0  AVERAGE MISS PENALTY: 0
ITLB PREFETCH  ACCESS:     0  HIT:     0  MISS:     0  HIT %:     0  MISS %:     0  AVERAGE MISS PENALTY: 0
ITLB WRITEBACK ACCESS:     0  HIT:     0  MISS:     0  HIT %:     0  MISS %:     0  AVERAGE MISS PENALTY: 0
ITLB PREFETCH  REQUESTED:     0  ISSUED:     0  USEFUL:     0  USELESS:     0
 USEFUL LOAD PREFETCHES:          0 PREFETCH ISSUED TO LOWER LEVEL:          0  ACCURACY: -nan
 TIMELY PREFETCHES:          0 LATE PREFETCHES: 0 DROPPED PREFETCHES: 0
ITLB AVERAGE MISS LATENCY: -nan cycles
DTLB TOTAL     ACCESS: 62838091  HIT: 59959185  MISS: 2878906  HIT %: 95.4185  MISS %: 4.58147  AVERAGE MISS PENALTY: 81.1851
DTLB LOAD      ACCESS: 49531403  HIT: 46654440  MISS: 2876963  HIT %: 94.1916  MISS %: 5.80836  AVERAGE MISS PENALTY: 81.2287
DTLB RFO       ACCESS: 13306688  HIT: 13304745  MISS:  1943  HIT %: 99.9854  MISS %: 0.0146017  AVERAGE MISS PENALTY: 16.7149
DTLB PREFETCH  ACCESS:     0  HIT:     0  MISS:     0  HIT %:     0  MISS %:     0  AVERAGE MISS PENALTY: 0
DTLB WRITEBACK ACCESS:     0  HIT:     0  MISS:     0  HIT %:     0  MISS %:     0  AVERAGE MISS PENALTY: 0
DTLB PREFETCH  REQUESTED:     0  ISSUED:     0  USEFUL:     0  USELESS:     0
 USEFUL LOAD PREFETCHES:          0 PREFETCH ISSUED TO LOWER LEVEL:          0  ACCURACY: -nan
 TIMELY PREFETCHES:          0 LATE PREFETCHES: 0 DROPPED PREFETCHES: 0
DTLB AVERAGE MISS LATENCY: 81.1851 cycles
STLB TOTAL     ACCESS: 2878906  HIT: 1251970  MISS: 1626936  HIT %: 43.4877  MISS %: 56.5123  AVERAGE MISS PENALTY: 100
STLB LOAD      ACCESS: 2876963  HIT: 1250174  MISS: 1626789  HIT %: 43.4546  MISS %: 56.5454  AVERAGE MISS PENALTY: 100
STLB RFO       ACCESS:  1943  HIT:  1796  MISS:   147  HIT %: 92.4344  MISS %: 7.56562  AVERAGE MISS PENALTY: 100
STLB PREFETCH  ACCESS:     0  HIT:     0  MISS:     0  HIT %:     0  MISS %:     0  AVERAGE MISS PENALTY: 0
STLB WRITEBACK ACCESS:     0  HIT:     0  MISS:     0  HIT %:     0  MISS %:     0  AVERAGE MISS PENALTY: 0
STLB PREFETCH  REQUESTED:     0  ISSUED:     0  USEFUL:     0  USELESS:     0
 USEFUL LOAD PREFETCHES:          0 PREFETCH ISSUED TO LOWER LEVEL:          0  ACCURACY: -nan
 TIMELY PREFETCHES:          0 LATE PREFETCHES: 0 DROPPED PREFETCHES: 0
STLB AVERAGE MISS LATENCY: 100 cycles
L1D TOTAL     ACCESS: 124166443  HIT: 95834256  MISS: 28332187  HIT %: 77.1821  MISS %: 22.8179  AVERAGE MISS PENALTY: 5.23149e+06
L1D LOAD      ACCESS: 62554364  HIT: 55707706  MISS: 6846658  HIT %: 89.0549  MISS %: 10.9451  AVERAGE MISS PENALTY: 2.15666e+07
L1D RFO       ACCESS: 19826570  HIT: 19744792  MISS: 81778  HIT %: 99.5875  MISS %: 0.412467  AVERAGE MISS PENALTY: 6.82661e+06
L1D PREFETCH  ACCESS: 41785509  HIT: 20381758  MISS: 21403751  HIT %: 48.7771  MISS %: 51.2229  AVERAGE MISS PENALTY: 111.222
L1D WRITEBACK ACCESS:     0  HIT:     0  MISS:     0  HIT %:     0  MISS %:     0  AVERAGE MISS PENALTY: 0
L1D PREFETCH  REQUESTED: 48435047  ISSUED: 43493232  USEFUL: 1680144  USELESS: 19723026
 USEFUL LOAD PREFETCHES:    1680144 PREFETCH ISSUED TO LOWER LEVEL:   54068849  ACCURACY: 3.10742
 TIMELY PREFETCHES:    1680144 LATE PREFETCHES: 543093 DROPPED PREFETCHES: 4941815
L1D AVERAGE MISS LATENCY: 19814.2 cycles
L1I TOTAL     ACCESS: 39814763  HIT: 39814763  MISS:     0  HIT %:   100  MISS %:     0  AVERAGE MISS PENALTY: 0
L1I LOAD      ACCESS: 39814763  HIT: 39814763  MISS:     0  HIT %:   100  MISS %:     0  AVERAGE MISS PENALTY: 0
L1I RFO       ACCESS:     0  HIT:     0  MISS:     0  HIT %:     0  MISS %:     0  AVERAGE MISS PENALTY: 0
L1I PREFETCH  ACCESS:     0  HIT:     0  MISS:     0  HIT %:     0  MISS %:     0  AVERAGE MISS PENALTY: 0
L1I WRITEBACK ACCESS:     0  HIT:     0  MISS:     0  HIT %:     0  MISS %:     0  AVERAGE MISS PENALTY: 0
L1I PREFETCH  REQUESTED:     0  ISSUED:     0  USEFUL:     0  USELESS:     0
 USEFUL LOAD PREFETCHES:          0 PREFETCH ISSUED TO LOWER LEVEL:          0  ACCURACY: -nan
 TIMELY PREFETCHES:          0 LATE PREFETCHES: 0 DROPPED PREFETCHES: 0
L1I AVERAGE MISS LATENCY: -nan cycles
L2C TOTAL     ACCESS: 48413606  HIT: 17727532  MISS: 30686074  HIT %: 36.6168  MISS %: 63.3832  AVERAGE MISS PENALTY: 3.2225e+06
L2C LOAD      ACCESS: 6799060  HIT: 2057959  MISS: 4741101  HIT %: 30.2683  MISS %: 69.7317  AVERAGE MISS PENALTY: 2.08547e+07
L2C RFO       ACCESS: 81058  HIT: 65466  MISS: 15592  HIT %: 80.7644  MISS %: 19.2356  AVERAGE MISS PENALTY: 516687
L2C PREFETCH  ACCESS: 40877758  HIT: 14951681  MISS: 25926077  HIT %: 36.5766  MISS %: 63.4234  AVERAGE MISS PENALTY: 144.908
L2C WRITEBACK ACCESS: 655730  HIT: 652426  MISS:  3304  HIT %: 99.4961  MISS %: 0.503866  AVERAGE MISS PENALTY: 0
L2C PREFETCH  REQUESTED: 84963860  ISSUED: 83987225  USEFUL: 495111  USELESS: 25424670
 USEFUL LOAD PREFETCHES:     495111 PREFETCH ISSUED TO LOWER LEVEL:   28574862  ACCURACY: 1.73268
 TIMELY PREFETCHES:     495111 LATE PREFETCHES: 471410 DROPPED PREFETCHES: 976635
L2C AVERAGE MISS LATENCY: 142.101 cycles
LLC0 TOTAL     ACCESS: 3894461  HIT: 2215285  MISS: 1679176  HIT %: 56.883  MISS %: 43.117  AVERAGE MISS PENALTY: 222.31
LLC0 LOAD      ACCESS: 589820  HIT: 352680  MISS: 237140  HIT %: 59.7945  MISS %: 40.2055  AVERAGE MISS PENALTY: 206.742
LLC0 RFO       ACCESS:  1885  HIT:  1826  MISS:    59  HIT %: 96.87  MISS %: 3.12997  AVERAGE MISS PENALTY: 159.61
LLC0 PREFETCH  ACCESS: 3246030  HIT: 1804501  MISS: 1441529  HIT %: 55.591  MISS %: 44.409  AVERAGE MISS PENALTY: 224.942
LLC0 WRITEBACK ACCESS: 56726  HIT: 56278  MISS:   448  HIT %: 99.2102  MISS %: 0.789761  AVERAGE MISS PENALTY: 0
LLC0 PREFETCH  REQUESTED:     0  ISSUED:     0  USEFUL: 18223  USELESS: 1406571
 USEFUL LOAD PREFETCHES:      18223 PREFETCH ISSUED TO LOWER LEVEL:    1441529  ACCURACY: 1.26414
 TIMELY PREFETCHES:      18223 LATE PREFETCHES: 0 DROPPED PREFETCHES: 0
LLC0 AVERAGE MISS LATENCY: 222.31 cycles
Deadblocks : 220346 Deadblock percentage : 92.9181

LLC1 TOTAL     ACCESS: 3918468  HIT: 2226513  MISS: 1691955  HIT %: 56.821  MISS %: 43.179  AVERAGE MISS PENALTY: 222.442
LLC1 LOAD      ACCESS: 577045  HIT: 344250  MISS: 232795  HIT %: 59.6574  MISS %: 40.3426  AVERAGE MISS PENALTY: 205.757
LLC1 RFO       ACCESS:  1955  HIT:  1898  MISS:    57  HIT %: 97.0844  MISS %: 2.9156  AVERAGE MISS PENALTY: 160.684
LLC1 PREFETCH  ACCESS: 3282617  HIT: 1824036  MISS: 1458581  HIT %: 55.5665  MISS %: 44.4335  AVERAGE MISS PENALTY: 225.187
LLC1 WRITEBACK ACCESS: 56851  HIT: 56329  MISS:   522  HIT %: 99.0818  MISS %: 0.91819  AVERAGE MISS PENALTY: 0
LLC1 PREFETCH  REQUESTED:     0  ISSUED:     0  USEFUL: 19046  USELESS: 1422752
 USEFUL LOAD PREFETCHES:      19046 PREFETCH ISSUED TO LOWER LEVEL:    1458581  ACCURACY: 1.30579
 TIMELY PREFETCHES:      19046 LATE PREFETCHES: 0 DROPPED PREFETCHES: 0
LLC1 AVERAGE MISS LATENCY: 222.442 cycles
LLC2 TOTAL     ACCESS: 3940866  HIT: 2238432  MISS: 1702434  HIT %: 56.8005  MISS %: 43.1995  AVERAGE MISS PENALTY: 222.023
LLC2 LOAD      ACCESS: 580366  HIT: 347386  MISS: 232980  HIT %: 59.8564  MISS %: 40.1436  AVERAGE MISS PENALTY: 206.208
LLC2 RFO       ACCESS:  1818  HIT:  1772  MISS:    46  HIT %: 97.4697  MISS %: 2.53025  AVERAGE MISS PENALTY: 154.239
LLC2 PREFETCH  ACCESS: 3301879  HIT: 1832958  MISS: 1468921  HIT %: 55.5126  MISS %: 44.4874  AVERAGE MISS PENALTY: 224.607
LLC2 WRITEBACK ACCESS: 56803  HIT: 56316  MISS:   487  HIT %: 99.1427  MISS %: 0.857349  AVERAGE MISS PENALTY: 0
LLC2 PREFETCH  REQUESTED:     0  ISSUED:     0  USEFUL: 18461  USELESS: 1433642
 USEFUL LOAD PREFETCHES:      18461 PREFETCH ISSUED TO LOWER LEVEL:    1468921  ACCURACY: 1.25677
 TIMELY PREFETCHES:      18461 LATE PREFETCHES: 0 DROPPED PREFETCHES: 0
LLC2 AVERAGE MISS LATENCY: 222.023 cycles
LLC3 TOTAL     ACCESS: 3930011  HIT: 2233355  MISS: 1696656  HIT %: 56.8282  MISS %: 43.1718  AVERAGE MISS PENALTY: 221.73
LLC3 LOAD      ACCESS: 580885  HIT: 346724  MISS: 234161  HIT %: 59.6889  MISS %: 40.3111  AVERAGE MISS PENALTY: 206.242
LLC3 RFO       ACCESS:  1687  HIT:  1622  MISS:    65  HIT %: 96.147  MISS %: 3.85299  AVERAGE MISS PENALTY: 168.123
LLC3 PREFETCH  ACCESS: 3290609  HIT: 1828650  MISS: 1461959  HIT %: 55.5718  MISS %: 44.4282  AVERAGE MISS PENALTY: 224.284
LLC3 WRITEBACK ACCESS: 56830  HIT: 56359  MISS:   471  HIT %: 99.1712  MISS %: 0.828788  AVERAGE MISS PENALTY: 0
LLC3 PREFETCH  REQUESTED:     0  ISSUED:     0  USEFUL: 18553  USELESS: 1426658
 USEFUL LOAD PREFETCHES:      18553 PREFETCH ISSUED TO LOWER LEVEL:    1461959  ACCURACY: 1.26905
 TIMELY PREFETCHES:      18553 LATE PREFETCHES: 0 DROPPED PREFETCHES: 0
LLC3 AVERAGE MISS LATENCY: 221.73 cycles
LLC4 TOTAL     ACCESS: 3913541  HIT: 2224936  MISS: 1688605  HIT %: 56.8522  MISS %: 43.1478  AVERAGE MISS PENALTY: 221.302
LLC4 LOAD      ACCESS: 578947  HIT: 346145  MISS: 232802  HIT %: 59.7887  MISS %: 40.2113  AVERAGE MISS PENALTY: 206.002
LLC4 RFO       ACCESS:  1775  HIT:  1717  MISS:    58  HIT %: 96.7324  MISS %: 3.26761  AVERAGE MISS PENALTY: 176.241
LLC4 PREFETCH  ACCESS: 3276008  HIT: 1820728  MISS: 1455280  HIT %: 55.5776  MISS %: 44.4224  AVERAGE MISS PENALTY: 223.822
LLC4 WRITEBACK ACCESS: 56811  HIT: 56346  MISS:   465  HIT %: 99.1815  MISS %: 0.818503  AVERAGE MISS PENALTY: 0
LLC4 PREFETCH  REQUESTED:     0  ISSUED:     0  USEFUL: 18328  USELESS: 1420189
 USEFUL LOAD PREFETCHES:      18328 PREFETCH ISSUED TO LOWER LEVEL:    1455280  ACCURACY: 1.25941
 TIMELY PREFETCHES:      18328 LATE PREFETCHES: 0 DROPPED PREFETCHES: 0
LLC4 AVERAGE MISS LATENCY: 221.302 cycles
LLC5 TOTAL     ACCESS: 3885518  HIT: 2209357  MISS: 1676161  HIT %: 56.8613  MISS %: 43.1387  AVERAGE MISS PENALTY: 220.733
LLC5 LOAD      ACCESS: 581406  HIT: 347426  MISS: 233980  HIT %: 59.7562  MISS %: 40.2438  AVERAGE MISS PENALTY: 205.741
LLC5 RFO       ACCESS:  2077  HIT:  2020  MISS:    57  HIT %: 97.2557  MISS %: 2.74434  AVERAGE MISS PENALTY: 171.035
LLC5 PREFETCH  ACCESS: 3245400  HIT: 1803726  MISS: 1441674  HIT %: 55.5779  MISS %: 44.4221  AVERAGE MISS PENALTY: 223.237
LLC5 WRITEBACK ACCESS: 56635  HIT: 56185  MISS:   450  HIT %: 99.2054  MISS %: 0.794562  AVERAGE MISS PENALTY: 0
LLC5 PREFETCH  REQUESTED:     0  ISSUED:     0  USEFUL: 18758  USELESS: 1406222
 USEFUL LOAD PREFETCHES:      18758 PREFETCH ISSUED TO LOWER LEVEL:    1441674  ACCURACY: 1.30113
 TIMELY PREFETCHES:      18758 LATE PREFETCHES: 0 DROPPED PREFETCHES: 0
LLC5 AVERAGE MISS LATENCY: 220.733 cycles
LLC6 TOTAL     ACCESS: 3845798  HIT: 2189951  MISS: 1655847  HIT %: 56.944  MISS %: 43.056  AVERAGE MISS PENALTY: 220.056
LLC6 LOAD      ACCESS: 581503  HIT: 347544  MISS: 233959  HIT %: 59.7665  MISS %: 40.2335  AVERAGE MISS PENALTY: 205.087
LLC6 RFO       ACCESS:  2289  HIT:  2212  MISS:    77  HIT %: 96.6361  MISS %: 3.36391  AVERAGE MISS PENALTY: 164.636
LLC6 PREFETCH  ACCESS: 3205444  HIT: 1784119  MISS: 1421325  HIT %: 55.659  MISS %: 44.341  AVERAGE MISS PENALTY: 222.598
LLC6 WRITEBACK ACCESS: 56562  HIT: 56076  MISS:   486  HIT %: 99.1408  MISS %: 0.859234  AVERAGE MISS PENALTY: 0
LLC6 PREFETCH  REQUESTED:     0  ISSUED:     0  USEFUL: 18520  USELESS: 1386156
 USEFUL LOAD PREFETCHES:      18520 PREFETCH ISSUED TO LOWER LEVEL:    1421325  ACCURACY: 1.30301
 TIMELY PREFETCHES:      18520 LATE PREFETCHES: 0 DROPPED PREFETCHES: 0
LLC6 AVERAGE MISS LATENCY: 220.056 cycles
LLC7 TOTAL     ACCESS: 3807877  HIT: 2170847  MISS: 1637030  HIT %: 57.0094  MISS %: 42.9906  AVERAGE MISS PENALTY: 219.363
LLC7 LOAD      ACCESS: 581709  HIT: 346091  MISS: 235618  HIT %: 59.4956  MISS %: 40.5044  AVERAGE MISS PENALTY: 204.017
LLC7 RFO       ACCESS:  2103  HIT:  2044  MISS:    59  HIT %: 97.1945  MISS %: 2.80552  AVERAGE MISS PENALTY: 155.746
LLC7 PREFETCH  ACCESS: 3167506  HIT: 1766642  MISS: 1400864  HIT %: 55.7739  MISS %: 44.2261  AVERAGE MISS PENALTY: 222.024
LLC7 WRITEBACK ACCESS: 56559  HIT: 56070  MISS:   489  HIT %: 99.1354  MISS %: 0.864584  AVERAGE MISS PENALTY: 0
LLC7 PREFETCH  REQUESTED:     0  ISSUED:     0  USEFUL: 18342  USELESS: 1366196
 USEFUL LOAD PREFETCHES:      18342 PREFETCH ISSUED TO LOWER LEVEL:    1400864  ACCURACY: 1.30933
 TIMELY PREFETCHES:      18342 LATE PREFETCHES: 0 DROPPED PREFETCHES: 0
LLC7 AVERAGE MISS LATENCY: 219.363 cycles
ROI Average ROB Stall Cycles:	13.7534
ROI Total ROB Stalls Cycles:	866472996
ROI TOTAL ROB counter      :	63000661
ROI Average Load ROB Stall Cycles:	13.3938
ROI Total Load ROB Stalls Cycle  :	254104253
ROI Total Load ROB stalls Counter:	18971837
Major fault: 0 Minor fault: 219884

