
*** ChampSim Multicore Out-of-Order Simulator ***

Warmup Instructions: 200000000
Simulation Instructions: 200000000
Number of CPUs: 1
threads:1

L1I Configuration:
L1I_SET:64
L1I_WAY:8
L1I_RQ_SIZE:64
L1I_WQ_SIZE:64
L1I_PQ_SIZE:8
L1I_MSHR_SIZE:8

L1D Configuration:
L1D_SET:64
L1D_WAY:12
L1D_RQ_SIZE:64
L1D_WQ_SIZE:64
L1D_PQ_SIZE:8
L1D_MSHR_SIZE:16

L2C Configuration:
L2C_SET:1024
L2C_WAY:8
L2C_RQ_SIZE:32
L2C_WQ_SIZE:32
L2C_PQ_SIZE:16
L2C_MSHR_SIZE:32

LLC Configuration:
LLC_SET:4096
LLC_WAY:16
LLC SLICES:8
LLC_RQ_SIZE:64
LLC_WQ_SIZE:64
LLC_PQ_SIZE:32
LLC_MSHR_SIZE:64

Interconnect OFF
Attacker deprioritize is: OFF
Off-chip DRAM Size: 4096 MB Channels: 1 Width: 64-bit Data Rate: 3200 MT/s
PAGE SIZE in KB: 4.000000 
PAGE SIZE in MB: 0.003906 
PAGE offset in bits: 12 
CEASER-S_LLC:0
MIRAGE : 1
CEASER_LATENCY:3
REMAP : OFF
Partitions : 1
Multi-Step : OFF
BFS : OFF

CPU 0 runs /home/anubhav/spec_2017/607.cactuBSSN_s-4004B.champsimtrace.xz
CPU 0 Bimodal branch predictor
Initialize Hawkeye state
Initialize Hawkeye state
Initialize Hawkeye state
Initialize Hawkeye state
Initialize Hawkeye state
Initialize Hawkeye state
Initialize Hawkeye state
Initialize Hawkeye state
Heartbeat CPU 0 instructions: 10000000 cycles: 5486779 heartbeat IPC: 1.82256 cumulative IPC: 1.82256 (Simulation time: 0 hr 2 min 59 sec) 
 Total Blocks : 524288 Invalid Blocks : 492782
Heartbeat CPU 0 instructions: 20000000 cycles: 10972733 heartbeat IPC: 1.82284 cumulative IPC: 1.8227 (Simulation time: 0 hr 6 min 42 sec) 
 Total Blocks : 524288 Invalid Blocks : 468566
Heartbeat CPU 0 instructions: 30000001 cycles: 16458471 heartbeat IPC: 1.82291 cumulative IPC: 1.82277 (Simulation time: 0 hr 10 min 39 sec) 
 Total Blocks : 524288 Invalid Blocks : 445550
Heartbeat CPU 0 instructions: 40000001 cycles: 21943622 heartbeat IPC: 1.8231 cumulative IPC: 1.82285 (Simulation time: 0 hr 14 min 25 sec) 
 Total Blocks : 524288 Invalid Blocks : 423685
Heartbeat CPU 0 instructions: 50000000 cycles: 27429547 heartbeat IPC: 1.82285 cumulative IPC: 1.82285 (Simulation time: 0 hr 18 min 9 sec) 
 Total Blocks : 524288 Invalid Blocks : 402857
Heartbeat CPU 0 instructions: 60000001 cycles: 32915840 heartbeat IPC: 1.82272 cumulative IPC: 1.82283 (Simulation time: 0 hr 22 min 18 sec) 
 Total Blocks : 524288 Invalid Blocks : 383108
Heartbeat CPU 0 instructions: 70000001 cycles: 38401172 heartbeat IPC: 1.82304 cumulative IPC: 1.82286 (Simulation time: 0 hr 26 min 15 sec) 
 Total Blocks : 524288 Invalid Blocks : 364208
Heartbeat CPU 0 instructions: 80000001 cycles: 43886756 heartbeat IPC: 1.82296 cumulative IPC: 1.82287 (Simulation time: 0 hr 30 min 16 sec) 
 Total Blocks : 524288 Invalid Blocks : 342850
Heartbeat CPU 0 instructions: 90000001 cycles: 49372922 heartbeat IPC: 1.82277 cumulative IPC: 1.82286 (Simulation time: 0 hr 34 min 6 sec) 
 Total Blocks : 524288 Invalid Blocks : 326060
Heartbeat CPU 0 instructions: 100000003 cycles: 54858441 heartbeat IPC: 1.82298 cumulative IPC: 1.82287 (Simulation time: 0 hr 38 min 10 sec) 
 Total Blocks : 524288 Invalid Blocks : 310110
Heartbeat CPU 0 instructions: 110000000 cycles: 60344214 heartbeat IPC: 1.8229 cumulative IPC: 1.82288 (Simulation time: 0 hr 41 min 58 sec) 
 Total Blocks : 524288 Invalid Blocks : 294899
Heartbeat CPU 0 instructions: 120000000 cycles: 65829597 heartbeat IPC: 1.82303 cumulative IPC: 1.82289 (Simulation time: 0 hr 45 min 47 sec) 
 Total Blocks : 524288 Invalid Blocks : 280307
Heartbeat CPU 0 instructions: 130000003 cycles: 71315546 heartbeat IPC: 1.82284 cumulative IPC: 1.82288 (Simulation time: 0 hr 49 min 38 sec) 
 Total Blocks : 524288 Invalid Blocks : 266556
Heartbeat CPU 0 instructions: 140000003 cycles: 76801407 heartbeat IPC: 1.82287 cumulative IPC: 1.82288 (Simulation time: 0 hr 53 min 26 sec) 
 Total Blocks : 524288 Invalid Blocks : 253545
Heartbeat CPU 0 instructions: 150000000 cycles: 82287604 heartbeat IPC: 1.82276 cumulative IPC: 1.82287 (Simulation time: 0 hr 57 min 25 sec) 
 Total Blocks : 524288 Invalid Blocks : 241622
Heartbeat CPU 0 instructions: 160000002 cycles: 87772536 heartbeat IPC: 1.82318 cumulative IPC: 1.82289 (Simulation time: 1 hr 1 min 29 sec) 
 Total Blocks : 524288 Invalid Blocks : 232604
Heartbeat CPU 0 instructions: 170000001 cycles: 93258466 heartbeat IPC: 1.82284 cumulative IPC: 1.82289 (Simulation time: 1 hr 5 min 34 sec) 
 Total Blocks : 524288 Invalid Blocks : 224136
Heartbeat CPU 0 instructions: 180000000 cycles: 98744131 heartbeat IPC: 1.82293 cumulative IPC: 1.82289 (Simulation time: 1 hr 9 min 23 sec) 
 Total Blocks : 524288 Invalid Blocks : 216002
Heartbeat CPU 0 instructions: 190000002 cycles: 104230000 heartbeat IPC: 1.82287 cumulative IPC: 1.82289 (Simulation time: 1 hr 13 min 8 sec) 
 Total Blocks : 524288 Invalid Blocks : 208107
Heartbeat CPU 0 instructions: 200000002 cycles: 109715257 heartbeat IPC: 1.82307 cumulative IPC: 1.8229 (Simulation time: 1 hr 16 min 55 sec) 
 Total Blocks : 524288 Invalid Blocks : 200697

Warmup complete CPU 0 instructions: 200000002 cycles: 109715257 (Simulation time: 1 hr 16 min 55 sec) 

Heartbeat CPU 0 instructions: 210000000 cycles: 118181671 heartbeat IPC: 1.18114 cumulative IPC: 1.18114 (Simulation time: 1 hr 21 min 34 sec) 
 Total Blocks : 524288 Invalid Blocks : 193552
Heartbeat CPU 0 instructions: 220000000 cycles: 126649286 heartbeat IPC: 1.18097 cumulative IPC: 1.18105 (Simulation time: 1 hr 26 min 14 sec) 
 Total Blocks : 524288 Invalid Blocks : 186610
Heartbeat CPU 0 instructions: 230000000 cycles: 135111361 heartbeat IPC: 1.18174 cumulative IPC: 1.18128 (Simulation time: 1 hr 30 min 45 sec) 
 Total Blocks : 524288 Invalid Blocks : 179931
Heartbeat CPU 0 instructions: 240000001 cycles: 143615350 heartbeat IPC: 1.17592 cumulative IPC: 1.17994 (Simulation time: 1 hr 35 min 15 sec) 
 Total Blocks : 524288 Invalid Blocks : 172610
Heartbeat CPU 0 instructions: 250000003 cycles: 152087369 heartbeat IPC: 1.18036 cumulative IPC: 1.18002 (Simulation time: 1 hr 39 min 39 sec) 
 Total Blocks : 524288 Invalid Blocks : 166614
Heartbeat CPU 0 instructions: 260000000 cycles: 160549265 heartbeat IPC: 1.18177 cumulative IPC: 1.18031 (Simulation time: 1 hr 44 min 9 sec) 
 Total Blocks : 524288 Invalid Blocks : 160766
Heartbeat CPU 0 instructions: 270000003 cycles: 169020003 heartbeat IPC: 1.18054 cumulative IPC: 1.18034 (Simulation time: 1 hr 48 min 43 sec) 
 Total Blocks : 524288 Invalid Blocks : 155216
Heartbeat CPU 0 instructions: 280000001 cycles: 177487878 heartbeat IPC: 1.18093 cumulative IPC: 1.18042 (Simulation time: 1 hr 53 min 1 sec) 
 Total Blocks : 524288 Invalid Blocks : 149906
Heartbeat CPU 0 instructions: 290000001 cycles: 185954189 heartbeat IPC: 1.18115 cumulative IPC: 1.1805 (Simulation time: 1 hr 57 min 28 sec) 
 Total Blocks : 524288 Invalid Blocks : 144796
Heartbeat CPU 0 instructions: 300000001 cycles: 194422444 heartbeat IPC: 1.18088 cumulative IPC: 1.18054 (Simulation time: 2 hr 1 min 38 sec) 
 Total Blocks : 524288 Invalid Blocks : 139981
Heartbeat CPU 0 instructions: 310000000 cycles: 202881218 heartbeat IPC: 1.1822 cumulative IPC: 1.18069 (Simulation time: 2 hr 5 min 51 sec) 
 Total Blocks : 524288 Invalid Blocks : 135288
Heartbeat CPU 0 instructions: 320000000 cycles: 211344844 heartbeat IPC: 1.18153 cumulative IPC: 1.18076 (Simulation time: 2 hr 10 min 2 sec) 
 Total Blocks : 524288 Invalid Blocks : 130546
Heartbeat CPU 0 instructions: 330000000 cycles: 219812362 heartbeat IPC: 1.18098 cumulative IPC: 1.18078 (Simulation time: 2 hr 14 min 4 sec) 
 Total Blocks : 524288 Invalid Blocks : 126133
Heartbeat CPU 0 instructions: 340000003 cycles: 228275261 heartbeat IPC: 1.18163 cumulative IPC: 1.18084 (Simulation time: 2 hr 18 min 14 sec) 
 Total Blocks : 524288 Invalid Blocks : 121912
Heartbeat CPU 0 instructions: 350000002 cycles: 236744686 heartbeat IPC: 1.18072 cumulative IPC: 1.18083 (Simulation time: 2 hr 22 min 22 sec) 
 Total Blocks : 524288 Invalid Blocks : 117751
Heartbeat CPU 0 instructions: 360000001 cycles: 245215930 heartbeat IPC: 1.18046 cumulative IPC: 1.18081 (Simulation time: 2 hr 26 min 19 sec) 
 Total Blocks : 524288 Invalid Blocks : 113625
Heartbeat CPU 0 instructions: 370000001 cycles: 253669155 heartbeat IPC: 1.18298 cumulative IPC: 1.18093 (Simulation time: 2 hr 30 min 19 sec) 
 Total Blocks : 524288 Invalid Blocks : 109856
Heartbeat CPU 0 instructions: 380000001 cycles: 262134469 heartbeat IPC: 1.18129 cumulative IPC: 1.18095 (Simulation time: 2 hr 34 min 5 sec) 
 Total Blocks : 524288 Invalid Blocks : 106220
Heartbeat CPU 0 instructions: 390000003 cycles: 270632662 heartbeat IPC: 1.17672 cumulative IPC: 1.18073 (Simulation time: 2 hr 37 min 32 sec) 
 Total Blocks : 524288 Invalid Blocks : 102113
Heartbeat CPU 0 instructions: 400000000 cycles: 279101143 heartbeat IPC: 1.18085 cumulative IPC: 1.18074 (Simulation time: 2 hr 40 min 59 sec) 
 Total Blocks : 524288 Invalid Blocks : 98690
Finished CPU 0 instructions: 200000002 cycles: 169385887 cumulative IPC: 1.18074 (Simulation time: 2 hr 40 min 59 sec) 

CPU 0 Branch Prediction Accuracy: 99.9835% MPKI: 0.00111 Average ROB Occupancy at Mispredict: 345.432

ChampSim completed all CPUs

Region of Interest Statistics

CPU 0 cumulative IPC: 1.18074 instructions: 200000002 cycles: 169385887
ITLB TOTAL     ACCESS: 39119204  HIT: 39119204  MISS:     0  HIT %:   100  MISS %:     0  AVERAGE MISS PENALTY: 0
ITLB LOAD      ACCESS: 39119204  HIT: 39119204  MISS:     0  HIT %:   100  MISS %:     0  AVERAGE MISS PENALTY: 0
ITLB RFO       ACCESS:     0  HIT:     0  MISS:     0  HIT %:     0  MISS %:     0  AVERAGE MISS PENALTY: 0
ITLB PREFETCH  ACCESS:     0  HIT:     0  MISS:     0  HIT %:     0  MISS %:     0  AVERAGE MISS PENALTY: 0
ITLB WRITEBACK ACCESS:     0  HIT:     0  MISS:     0  HIT %:     0  MISS %:     0  AVERAGE MISS PENALTY: 0
ITLB PREFETCH  REQUESTED:     0  ISSUED:     0  USEFUL:     0  USELESS:     0
 USEFUL LOAD PREFETCHES:          0 PREFETCH ISSUED TO LOWER LEVEL:          0  ACCURACY: -nan
 TIMELY PREFETCHES:          0 LATE PREFETCHES: 0 DROPPED PREFETCHES: 0
ITLB AVERAGE MISS LATENCY: -nan cycles
DTLB TOTAL     ACCESS: 53692491  HIT: 45969526  MISS: 7722965  HIT %: 85.6163  MISS %: 14.3837  AVERAGE MISS PENALTY: 9.78109
DTLB LOAD      ACCESS: 45242402  HIT: 38428544  MISS: 6813858  HIT %: 84.9392  MISS %: 15.0608  AVERAGE MISS PENALTY: 9.61483
DTLB RFO       ACCESS: 8450089  HIT: 7540982  MISS: 909107  HIT %: 89.2415  MISS %: 10.7585  AVERAGE MISS PENALTY: 11.0273
DTLB PREFETCH  ACCESS:     0  HIT:     0  MISS:     0  HIT %:     0  MISS %:     0  AVERAGE MISS PENALTY: 0
DTLB WRITEBACK ACCESS:     0  HIT:     0  MISS:     0  HIT %:     0  MISS %:     0  AVERAGE MISS PENALTY: 0
DTLB PREFETCH  REQUESTED:     0  ISSUED:     0  USEFUL:     0  USELESS:     0
 USEFUL LOAD PREFETCHES:          0 PREFETCH ISSUED TO LOWER LEVEL:          0  ACCURACY: -nan
 TIMELY PREFETCHES:          0 LATE PREFETCHES: 0 DROPPED PREFETCHES: 0
DTLB AVERAGE MISS LATENCY: 9.78109 cycles
STLB TOTAL     ACCESS: 7722965  HIT: 7714441  MISS:  8524  HIT %: 99.8896  MISS %: 0.110372  AVERAGE MISS PENALTY: 100
STLB LOAD      ACCESS: 6813858  HIT: 6807234  MISS:  6624  HIT %: 99.9028  MISS %: 0.0972136  AVERAGE MISS PENALTY: 100
STLB RFO       ACCESS: 909107  HIT: 907207  MISS:  1900  HIT %: 99.791  MISS %: 0.208996  AVERAGE MISS PENALTY: 100
STLB PREFETCH  ACCESS:     0  HIT:     0  MISS:     0  HIT %:     0  MISS %:     0  AVERAGE MISS PENALTY: 0
STLB WRITEBACK ACCESS:     0  HIT:     0  MISS:     0  HIT %:     0  MISS %:     0  AVERAGE MISS PENALTY: 0
STLB PREFETCH  REQUESTED:     0  ISSUED:     0  USEFUL:     0  USELESS:     0
 USEFUL LOAD PREFETCHES:          0 PREFETCH ISSUED TO LOWER LEVEL:          0  ACCURACY: -nan
 TIMELY PREFETCHES:          0 LATE PREFETCHES: 0 DROPPED PREFETCHES: 0
STLB AVERAGE MISS LATENCY: 100 cycles
L1D TOTAL     ACCESS: 115433184  HIT: 91478496  MISS: 23954688  HIT %: 79.248  MISS %: 20.752  AVERAGE MISS PENALTY: 1.57109e+06
L1D LOAD      ACCESS: 61739236  HIT: 47919884  MISS: 13819352  HIT %: 77.6166  MISS %: 22.3834  AVERAGE MISS PENALTY: 2.67234e+06
L1D RFO       ACCESS: 15991694  HIT: 14669285  MISS: 1322409  HIT %: 91.7307  MISS %: 8.26935  AVERAGE MISS PENALTY: 532848
L1D PREFETCH  ACCESS: 37702254  HIT: 28889327  MISS: 8812927  HIT %: 76.6249  MISS %: 23.3751  AVERAGE MISS PENALTY: 23.118
L1D WRITEBACK ACCESS:     0  HIT:     0  MISS:     0  HIT %:     0  MISS %:     0  AVERAGE MISS PENALTY: 0
L1D PREFETCH  REQUESTED: 43911466  ISSUED: 39503546  USEFUL: 579659  USELESS: 8233243
 USEFUL LOAD PREFETCHES:     579659 PREFETCH ISSUED TO LOWER LEVEL:   24022760  ACCURACY: 2.41296
 TIMELY PREFETCHES:     579659 LATE PREFETCHES: 576081 DROPPED PREFETCHES: 4407920
L1D AVERAGE MISS LATENCY: 29433.3 cycles
L1I TOTAL     ACCESS: 45572579  HIT: 40372570  MISS: 5200009  HIT %: 88.5896  MISS %: 11.4104  AVERAGE MISS PENALTY: 32.1716
L1I LOAD      ACCESS: 45572579  HIT: 40372570  MISS: 5200009  HIT %: 88.5896  MISS %: 11.4104  AVERAGE MISS PENALTY: 32.1716
L1I RFO       ACCESS:     0  HIT:     0  MISS:     0  HIT %:     0  MISS %:     0  AVERAGE MISS PENALTY: 0
L1I PREFETCH  ACCESS:     0  HIT:     0  MISS:     0  HIT %:     0  MISS %:     0  AVERAGE MISS PENALTY: 0
L1I WRITEBACK ACCESS:     0  HIT:     0  MISS:     0  HIT %:     0  MISS %:     0  AVERAGE MISS PENALTY: 0
L1I PREFETCH  REQUESTED:     0  ISSUED:     0  USEFUL:     0  USELESS:     0
 USEFUL LOAD PREFETCHES:          0 PREFETCH ISSUED TO LOWER LEVEL:          0  ACCURACY: -nan
 TIMELY PREFETCHES:          0 LATE PREFETCHES: 0 DROPPED PREFETCHES: 0
L1I AVERAGE MISS LATENCY: 11.0725 cycles
L2C TOTAL     ACCESS: 50510843  HIT: 49551183  MISS: 959660  HIT %: 98.1001  MISS %: 1.89991  AVERAGE MISS PENALTY: 1139.07
L2C LOAD      ACCESS: 18982997  HIT: 18960002  MISS: 22995  HIT %: 99.8789  MISS %: 0.121135  AVERAGE MISS PENALTY: 40433.3
L2C RFO       ACCESS: 1316433  HIT: 1198727  MISS: 117706  HIT %: 91.0587  MISS %: 8.94128  AVERAGE MISS PENALTY: 721.907
L2C PREFETCH  ACCESS: 28706982  HIT: 27888214  MISS: 818768  HIT %: 97.1478  MISS %: 2.85216  AVERAGE MISS PENALTY: 95.7321
L2C WRITEBACK ACCESS: 1504431  HIT: 1504240  MISS:   191  HIT %: 99.9873  MISS %: 0.0126958  AVERAGE MISS PENALTY: 0
L2C PREFETCH  REQUESTED: 31845269  ISSUED: 25666503  USEFUL: 810014  USELESS:  8615
 USEFUL LOAD PREFETCHES:     810014 PREFETCH ISSUED TO LOWER LEVEL:     821421  ACCURACY: 98.6113
 TIMELY PREFETCHES:     810014 LATE PREFETCHES: 16 DROPPED PREFETCHES: 6178766
L2C AVERAGE MISS LATENCY: 172.544 cycles
LLC0 TOTAL     ACCESS: 136479  HIT: 90124  MISS: 46355  HIT %: 66.0351  MISS %: 33.9649  AVERAGE MISS PENALTY: 327.341
LLC0 LOAD      ACCESS: 13906  HIT:  9636  MISS:  4270  HIT %: 69.2938  MISS %: 30.7062  AVERAGE MISS PENALTY: 170.606
LLC0 RFO       ACCESS: 14700  HIT:     0  MISS: 14700  HIT %:     0  MISS %:   100  AVERAGE MISS PENALTY: 634.265
LLC0 PREFETCH  ACCESS: 93172  HIT: 65828  MISS: 27344  HIT %: 70.6521  MISS %: 29.3479  AVERAGE MISS PENALTY: 187.306
LLC0 WRITEBACK ACCESS: 14701  HIT: 14660  MISS:    41  HIT %: 99.7211  MISS %: 0.278893  AVERAGE MISS PENALTY: 0
LLC0 PREFETCH  REQUESTED:     0  ISSUED:     0  USEFUL:   152  USELESS: 20942
 USEFUL LOAD PREFETCHES:        152 PREFETCH ISSUED TO LOWER LEVEL:      27344  ACCURACY: 0.555881
 TIMELY PREFETCHES:        152 LATE PREFETCHES: 0 DROPPED PREFETCHES: 0
LLC0 AVERAGE MISS LATENCY: 327.341 cycles
Deadblocks : 4094 Deadblock percentage : 95.8782

LLC1 TOTAL     ACCESS: 133287  HIT: 86565  MISS: 46722  HIT %: 64.9463  MISS %: 35.0537  AVERAGE MISS PENALTY: 345.235
LLC1 LOAD      ACCESS:   972  HIT:   540  MISS:   432  HIT %: 55.5556  MISS %: 44.4444  AVERAGE MISS PENALTY: 198.35
LLC1 RFO       ACCESS: 14700  HIT:     0  MISS: 14700  HIT %:     0  MISS %:   100  AVERAGE MISS PENALTY: 689.575
LLC1 PREFETCH  ACCESS: 102911  HIT: 71379  MISS: 31532  HIT %: 69.3599  MISS %: 30.6401  AVERAGE MISS PENALTY: 187.354
LLC1 WRITEBACK ACCESS: 14704  HIT: 14646  MISS:    58  HIT %: 99.6055  MISS %: 0.39445  AVERAGE MISS PENALTY: 0
LLC1 PREFETCH  REQUESTED:     0  ISSUED:     0  USEFUL:   195  USELESS: 24174
 USEFUL LOAD PREFETCHES:        195 PREFETCH ISSUED TO LOWER LEVEL:      31532  ACCURACY: 0.618419
 TIMELY PREFETCHES:        195 LATE PREFETCHES: 0 DROPPED PREFETCHES: 0
LLC1 AVERAGE MISS LATENCY: 345.235 cycles
LLC2 TOTAL     ACCESS: 133074  HIT: 86325  MISS: 46749  HIT %: 64.8699  MISS %: 35.1301  AVERAGE MISS PENALTY: 344.769
LLC2 LOAD      ACCESS:  1074  HIT:   676  MISS:   398  HIT %: 62.9423  MISS %: 37.0577  AVERAGE MISS PENALTY: 193.337
LLC2 RFO       ACCESS: 14700  HIT:     0  MISS: 14700  HIT %:     0  MISS %:   100  AVERAGE MISS PENALTY: 690.006
LLC2 PREFETCH  ACCESS: 102622  HIT: 71019  MISS: 31603  HIT %: 69.2045  MISS %: 30.7955  AVERAGE MISS PENALTY: 186.615
LLC2 WRITEBACK ACCESS: 14678  HIT: 14630  MISS:    48  HIT %: 99.673  MISS %: 0.32702  AVERAGE MISS PENALTY: 0
LLC2 PREFETCH  REQUESTED:     0  ISSUED:     0  USEFUL:   188  USELESS: 24076
 USEFUL LOAD PREFETCHES:        188 PREFETCH ISSUED TO LOWER LEVEL:      31603  ACCURACY: 0.59488
 TIMELY PREFETCHES:        188 LATE PREFETCHES: 0 DROPPED PREFETCHES: 0
LLC2 AVERAGE MISS LATENCY: 344.769 cycles
LLC3 TOTAL     ACCESS: 135953  HIT: 89093  MISS: 46860  HIT %: 65.5322  MISS %: 34.4678  AVERAGE MISS PENALTY: 346.312
LLC3 LOAD      ACCESS:  2551  HIT:  2165  MISS:   386  HIT %: 84.8687  MISS %: 15.1313  AVERAGE MISS PENALTY: 187.907
LLC3 RFO       ACCESS: 14725  HIT:     0  MISS: 14725  HIT %:     0  MISS %:   100  AVERAGE MISS PENALTY: 689.647
LLC3 PREFETCH  ACCESS: 103905  HIT: 72218  MISS: 31687  HIT %: 69.5039  MISS %: 30.4961  AVERAGE MISS PENALTY: 189.371
LLC3 WRITEBACK ACCESS: 14772  HIT: 14710  MISS:    62  HIT %: 99.5803  MISS %: 0.419713  AVERAGE MISS PENALTY: 0
LLC3 PREFETCH  REQUESTED:     0  ISSUED:     0  USEFUL:   167  USELESS: 24346
 USEFUL LOAD PREFETCHES:        167 PREFETCH ISSUED TO LOWER LEVEL:      31687  ACCURACY: 0.52703
 TIMELY PREFETCHES:        167 LATE PREFETCHES: 0 DROPPED PREFETCHES: 0
LLC3 AVERAGE MISS LATENCY: 346.312 cycles
LLC4 TOTAL     ACCESS: 133713  HIT: 87069  MISS: 46644  HIT %: 65.1163  MISS %: 34.8837  AVERAGE MISS PENALTY: 345.487
LLC4 LOAD      ACCESS:  1082  HIT:   673  MISS:   409  HIT %: 62.1996  MISS %: 37.8004  AVERAGE MISS PENALTY: 208.692
LLC4 RFO       ACCESS: 14702  HIT:     2  MISS: 14700  HIT %: 0.0136036  MISS %: 99.9864  AVERAGE MISS PENALTY: 689.092
LLC4 PREFETCH  ACCESS: 103248  HIT: 71768  MISS: 31480  HIT %: 69.5103  MISS %: 30.4897  AVERAGE MISS PENALTY: 187.417
LLC4 WRITEBACK ACCESS: 14681  HIT: 14626  MISS:    55  HIT %: 99.6254  MISS %: 0.374634  AVERAGE MISS PENALTY: 0
LLC4 PREFETCH  REQUESTED:     0  ISSUED:     0  USEFUL:   178  USELESS: 24130
 USEFUL LOAD PREFETCHES:        178 PREFETCH ISSUED TO LOWER LEVEL:      31480  ACCURACY: 0.565438
 TIMELY PREFETCHES:        178 LATE PREFETCHES: 0 DROPPED PREFETCHES: 0
LLC4 AVERAGE MISS LATENCY: 345.487 cycles
LLC5 TOTAL     ACCESS: 133747  HIT: 87129  MISS: 46618  HIT %: 65.1446  MISS %: 34.8554  AVERAGE MISS PENALTY: 347.256
LLC5 LOAD      ACCESS:  1144  HIT:   798  MISS:   346  HIT %: 69.7552  MISS %: 30.2448  AVERAGE MISS PENALTY: 191.26
LLC5 RFO       ACCESS: 14725  HIT:     0  MISS: 14725  HIT %:     0  MISS %:   100  AVERAGE MISS PENALTY: 689.756
LLC5 PREFETCH  ACCESS: 103167  HIT: 71687  MISS: 31480  HIT %: 69.4864  MISS %: 30.5136  AVERAGE MISS PENALTY: 189.503
LLC5 WRITEBACK ACCESS: 14711  HIT: 14644  MISS:    67  HIT %: 99.5446  MISS %: 0.455442  AVERAGE MISS PENALTY: 0
LLC5 PREFETCH  REQUESTED:     0  ISSUED:     0  USEFUL:   180  USELESS: 24040
 USEFUL LOAD PREFETCHES:        180 PREFETCH ISSUED TO LOWER LEVEL:      31480  ACCURACY: 0.571792
 TIMELY PREFETCHES:        180 LATE PREFETCHES: 0 DROPPED PREFETCHES: 0
LLC5 AVERAGE MISS LATENCY: 347.256 cycles
LLC6 TOTAL     ACCESS: 134348  HIT: 87724  MISS: 46624  HIT %: 65.2961  MISS %: 34.7039  AVERAGE MISS PENALTY: 347.31
LLC6 LOAD      ACCESS:  1089  HIT:   706  MISS:   383  HIT %: 64.8301  MISS %: 35.1699  AVERAGE MISS PENALTY: 193.59
LLC6 RFO       ACCESS: 14726  HIT:     1  MISS: 14725  HIT %: 0.00679071  MISS %: 99.9932  AVERAGE MISS PENALTY: 689.626
LLC6 PREFETCH  ACCESS: 103822  HIT: 72360  MISS: 31462  HIT %: 69.6962  MISS %: 30.3038  AVERAGE MISS PENALTY: 189.565
LLC6 WRITEBACK ACCESS: 14711  HIT: 14657  MISS:    54  HIT %: 99.6329  MISS %: 0.367072  AVERAGE MISS PENALTY: 0
LLC6 PREFETCH  REQUESTED:     0  ISSUED:     0  USEFUL:   147  USELESS: 24271
 USEFUL LOAD PREFETCHES:        147 PREFETCH ISSUED TO LOWER LEVEL:      31462  ACCURACY: 0.46723
 TIMELY PREFETCHES:        147 LATE PREFETCHES: 0 DROPPED PREFETCHES: 0
LLC6 AVERAGE MISS LATENCY: 347.31 cycles
LLC7 TOTAL     ACCESS: 136688  HIT: 89860  MISS: 46828  HIT %: 65.741  MISS %: 34.259  AVERAGE MISS PENALTY: 347.28
LLC7 LOAD      ACCESS:  1175  HIT:   791  MISS:   384  HIT %: 67.3191  MISS %: 32.6809  AVERAGE MISS PENALTY: 204.703
LLC7 RFO       ACCESS: 14728  HIT:     3  MISS: 14725  HIT %: 0.0203694  MISS %: 99.9796  AVERAGE MISS PENALTY: 691.033
LLC7 PREFETCH  ACCESS: 105923  HIT: 74266  MISS: 31657  HIT %: 70.1132  MISS %: 29.8868  AVERAGE MISS PENALTY: 189.796
LLC7 WRITEBACK ACCESS: 14862  HIT: 14800  MISS:    62  HIT %: 99.5828  MISS %: 0.417171  AVERAGE MISS PENALTY: 0
LLC7 PREFETCH  REQUESTED:     0  ISSUED:     0  USEFUL:   178  USELESS: 24262
 USEFUL LOAD PREFETCHES:        178 PREFETCH ISSUED TO LOWER LEVEL:      31657  ACCURACY: 0.562277
 TIMELY PREFETCHES:        178 LATE PREFETCHES: 0 DROPPED PREFETCHES: 0
LLC7 AVERAGE MISS LATENCY: 347.28 cycles
ROI Average ROB Stall Cycles:	5.78881
ROI Total ROB Stalls Cycles:	127355432
ROI TOTAL ROB counter      :	22000288
ROI Average Load ROB Stall Cycles:	11.9665
ROI Total Load ROB Stalls Cycle  :	38797492
ROI Total Load ROB stalls Counter:	3242168
Major fault: 0 Minor fault: 11251

