
*** ChampSim Multicore Out-of-Order Simulator ***

Warmup Instructions: 200000000
Simulation Instructions: 200000000
Number of CPUs: 1
threads:1

L1I Configuration:
L1I_SET:64
L1I_WAY:8
L1I_RQ_SIZE:64
L1I_WQ_SIZE:64
L1I_PQ_SIZE:8
L1I_MSHR_SIZE:8

L1D Configuration:
L1D_SET:64
L1D_WAY:12
L1D_RQ_SIZE:64
L1D_WQ_SIZE:64
L1D_PQ_SIZE:8
L1D_MSHR_SIZE:16

L2C Configuration:
L2C_SET:1024
L2C_WAY:8
L2C_RQ_SIZE:32
L2C_WQ_SIZE:32
L2C_PQ_SIZE:16
L2C_MSHR_SIZE:32

LLC Configuration:
LLC_SET:4096
LLC_WAY:16
LLC SLICES:8
LLC_RQ_SIZE:64
LLC_WQ_SIZE:64
LLC_PQ_SIZE:32
LLC_MSHR_SIZE:64

Interconnect OFF
Attacker deprioritize is: OFF
Off-chip DRAM Size: 4096 MB Channels: 1 Width: 64-bit Data Rate: 3200 MT/s
PAGE SIZE in KB: 4.000000 
PAGE SIZE in MB: 0.003906 
PAGE offset in bits: 12 
CEASER-S_LLC:0
MIRAGE : 1
CEASER_LATENCY:3
REMAP : OFF
Partitions : 1
Multi-Step : OFF
BFS : OFF

CPU 0 runs /home/anubhav/spec_2017/619.lbm_s-2677B.champsimtrace.xz
CPU 0 Bimodal branch predictor
Initialize Hawkeye state
Initialize Hawkeye state
Initialize Hawkeye state
Initialize Hawkeye state
Initialize Hawkeye state
Initialize Hawkeye state
Initialize Hawkeye state
Initialize Hawkeye state
Heartbeat CPU 0 instructions: 10000003 cycles: 4004420 heartbeat IPC: 2.49724 cumulative IPC: 2.49724 (Simulation time: 0 hr 2 min 18 sec) 
 Total Blocks : 524288 Invalid Blocks : 216156
Heartbeat CPU 0 instructions: 20000001 cycles: 7982872 heartbeat IPC: 2.51354 cumulative IPC: 2.50536 (Simulation time: 0 hr 4 min 51 sec) 
 Total Blocks : 524288 Invalid Blocks : 112882
Heartbeat CPU 0 instructions: 30000000 cycles: 11984871 heartbeat IPC: 2.49875 cumulative IPC: 2.50316 (Simulation time: 0 hr 8 min 14 sec) 
 Total Blocks : 524288 Invalid Blocks : 59162
Heartbeat CPU 0 instructions: 40000001 cycles: 15977152 heartbeat IPC: 2.50483 cumulative IPC: 2.50358 (Simulation time: 0 hr 11 min 58 sec) 
 Total Blocks : 524288 Invalid Blocks : 31142
Heartbeat CPU 0 instructions: 50000000 cycles: 19987450 heartbeat IPC: 2.49358 cumulative IPC: 2.50157 (Simulation time: 0 hr 15 min 55 sec) 
 Total Blocks : 524288 Invalid Blocks : 16250
Heartbeat CPU 0 instructions: 60000002 cycles: 23993980 heartbeat IPC: 2.49593 cumulative IPC: 2.50063 (Simulation time: 0 hr 20 min 2 sec) 
 Total Blocks : 524288 Invalid Blocks : 8558
Heartbeat CPU 0 instructions: 70000001 cycles: 27988248 heartbeat IPC: 2.50359 cumulative IPC: 2.50105 (Simulation time: 0 hr 24 min 19 sec) 
 Total Blocks : 524288 Invalid Blocks : 4480
Heartbeat CPU 0 instructions: 80000000 cycles: 31986707 heartbeat IPC: 2.50096 cumulative IPC: 2.50104 (Simulation time: 0 hr 28 min 57 sec) 
 Total Blocks : 524288 Invalid Blocks : 2311
Heartbeat CPU 0 instructions: 90000001 cycles: 36005878 heartbeat IPC: 2.48808 cumulative IPC: 2.49959 (Simulation time: 0 hr 33 min 52 sec) 
 Total Blocks : 524288 Invalid Blocks : 1204
Heartbeat CPU 0 instructions: 100000001 cycles: 40016207 heartbeat IPC: 2.49356 cumulative IPC: 2.49899 (Simulation time: 0 hr 39 min 4 sec) 
 Total Blocks : 524288 Invalid Blocks : 630
Heartbeat CPU 0 instructions: 110000000 cycles: 44039363 heartbeat IPC: 2.48561 cumulative IPC: 2.49777 (Simulation time: 0 hr 44 min 17 sec) 
 Total Blocks : 524288 Invalid Blocks : 312
Heartbeat CPU 0 instructions: 120000003 cycles: 48042536 heartbeat IPC: 2.49802 cumulative IPC: 2.49779 (Simulation time: 0 hr 49 min 45 sec) 
 Total Blocks : 524288 Invalid Blocks : 153
Heartbeat CPU 0 instructions: 130000001 cycles: 52045127 heartbeat IPC: 2.49838 cumulative IPC: 2.49783 (Simulation time: 0 hr 55 min 23 sec) 
 Total Blocks : 524288 Invalid Blocks : 78
Heartbeat CPU 0 instructions: 140000000 cycles: 56057218 heartbeat IPC: 2.49247 cumulative IPC: 2.49745 (Simulation time: 1 hr 0 min 59 sec) 
 Total Blocks : 524288 Invalid Blocks : 33
Heartbeat CPU 0 instructions: 150000000 cycles: 60076548 heartbeat IPC: 2.48798 cumulative IPC: 2.49681 (Simulation time: 1 hr 6 min 55 sec) 
 Total Blocks : 524288 Invalid Blocks : 12
Heartbeat CPU 0 instructions: 160000001 cycles: 64077240 heartbeat IPC: 2.49957 cumulative IPC: 2.49699 (Simulation time: 1 hr 13 min 19 sec) 
 Total Blocks : 524288 Invalid Blocks : 6
Heartbeat CPU 0 instructions: 170000002 cycles: 68074425 heartbeat IPC: 2.50176 cumulative IPC: 2.49727 (Simulation time: 1 hr 19 min 41 sec) 
 Total Blocks : 524288 Invalid Blocks : 5
Heartbeat CPU 0 instructions: 180000003 cycles: 72042814 heartbeat IPC: 2.51991 cumulative IPC: 2.49851 (Simulation time: 1 hr 26 min 3 sec) 
 Total Blocks : 524288 Invalid Blocks : 3
Heartbeat CPU 0 instructions: 190000003 cycles: 76049723 heartbeat IPC: 2.49569 cumulative IPC: 2.49837 (Simulation time: 1 hr 32 min 56 sec) 
 Total Blocks : 524288 Invalid Blocks : 1
Heartbeat CPU 0 instructions: 200000003 cycles: 80044162 heartbeat IPC: 2.50348 cumulative IPC: 2.49862 (Simulation time: 1 hr 39 min 37 sec) 
 Total Blocks : 524288 Invalid Blocks : 0

Warmup complete CPU 0 instructions: 200000003 cycles: 80044162 (Simulation time: 1 hr 39 min 37 sec) 

Heartbeat CPU 0 instructions: 210000002 cycles: 95622872 heartbeat IPC: 0.641902 cumulative IPC: 0.641902 (Simulation time: 1 hr 48 min 41 sec) 
 Total Blocks : 524288 Invalid Blocks : 0
Heartbeat CPU 0 instructions: 220000000 cycles: 111636924 heartbeat IPC: 0.624451 cumulative IPC: 0.633056 (Simulation time: 1 hr 57 min 51 sec) 
 Total Blocks : 524288 Invalid Blocks : 0
Heartbeat CPU 0 instructions: 230000003 cycles: 127791391 heartbeat IPC: 0.619024 cumulative IPC: 0.628309 (Simulation time: 2 hr 7 min 9 sec) 
 Total Blocks : 524288 Invalid Blocks : 0
Heartbeat CPU 0 instructions: 240000003 cycles: 144539824 heartbeat IPC: 0.597071 cumulative IPC: 0.620197 (Simulation time: 2 hr 16 min 1 sec) 
 Total Blocks : 524288 Invalid Blocks : 0
Heartbeat CPU 0 instructions: 250000003 cycles: 161029789 heartbeat IPC: 0.606429 cumulative IPC: 0.617393 (Simulation time: 2 hr 24 min 21 sec) 
 Total Blocks : 524288 Invalid Blocks : 0
Heartbeat CPU 0 instructions: 260000002 cycles: 177386005 heartbeat IPC: 0.611388 cumulative IPC: 0.616384 (Simulation time: 2 hr 32 min 35 sec) 
 Total Blocks : 524288 Invalid Blocks : 0
Heartbeat CPU 0 instructions: 270000000 cycles: 193544551 heartbeat IPC: 0.618867 cumulative IPC: 0.616738 (Simulation time: 2 hr 39 min 46 sec) 
 Total Blocks : 524288 Invalid Blocks : 0
Heartbeat CPU 0 instructions: 280000000 cycles: 209327078 heartbeat IPC: 0.633612 cumulative IPC: 0.618798 (Simulation time: 2 hr 46 min 41 sec) 
 Total Blocks : 524288 Invalid Blocks : 0
Heartbeat CPU 0 instructions: 290000003 cycles: 224903656 heartbeat IPC: 0.64199 cumulative IPC: 0.621292 (Simulation time: 2 hr 52 min 50 sec) 
 Total Blocks : 524288 Invalid Blocks : 0
Heartbeat CPU 0 instructions: 300000003 cycles: 240493352 heartbeat IPC: 0.641449 cumulative IPC: 0.62325 (Simulation time: 2 hr 57 min 31 sec) 
 Total Blocks : 524288 Invalid Blocks : 0
Heartbeat CPU 0 instructions: 310000002 cycles: 256023174 heartbeat IPC: 0.643922 cumulative IPC: 0.625075 (Simulation time: 3 hr 2 min 17 sec) 
 Total Blocks : 524288 Invalid Blocks : 0
Heartbeat CPU 0 instructions: 320000001 cycles: 271234894 heartbeat IPC: 0.657388 cumulative IPC: 0.627645 (Simulation time: 3 hr 6 min 55 sec) 
 Total Blocks : 524288 Invalid Blocks : 0
Heartbeat CPU 0 instructions: 330000000 cycles: 286365614 heartbeat IPC: 0.660907 cumulative IPC: 0.630085 (Simulation time: 3 hr 11 min 36 sec) 
 Total Blocks : 524288 Invalid Blocks : 0
Heartbeat CPU 0 instructions: 340000001 cycles: 301542394 heartbeat IPC: 0.658901 cumulative IPC: 0.632059 (Simulation time: 3 hr 17 min 33 sec) 
 Total Blocks : 524288 Invalid Blocks : 0
Heartbeat CPU 0 instructions: 350000000 cycles: 317133599 heartbeat IPC: 0.641387 cumulative IPC: 0.632673 (Simulation time: 3 hr 22 min 31 sec) 
 Total Blocks : 524288 Invalid Blocks : 0
Heartbeat CPU 0 instructions: 360000002 cycles: 332841402 heartbeat IPC: 0.636626 cumulative IPC: 0.632918 (Simulation time: 3 hr 29 min 40 sec) 
 Total Blocks : 524288 Invalid Blocks : 0
Heartbeat CPU 0 instructions: 370000000 cycles: 348774009 heartbeat IPC: 0.627644 cumulative IPC: 0.632606 (Simulation time: 3 hr 36 min 6 sec) 
 Total Blocks : 524288 Invalid Blocks : 0
Heartbeat CPU 0 instructions: 380000001 cycles: 364632429 heartbeat IPC: 0.63058 cumulative IPC: 0.632493 (Simulation time: 3 hr 41 min 20 sec) 
 Total Blocks : 524288 Invalid Blocks : 0
Heartbeat CPU 0 instructions: 390000000 cycles: 380185229 heartbeat IPC: 0.642971 cumulative IPC: 0.633036 (Simulation time: 3 hr 46 min 35 sec) 
 Total Blocks : 524288 Invalid Blocks : 0
Heartbeat CPU 0 instructions: 400000000 cycles: 396113867 heartbeat IPC: 0.6278 cumulative IPC: 0.632772 (Simulation time: 3 hr 52 min 1 sec) 
 Total Blocks : 524288 Invalid Blocks : 0
Finished CPU 0 instructions: 200000001 cycles: 316069706 cumulative IPC: 0.632772 (Simulation time: 3 hr 52 min 1 sec) 

CPU 0 Branch Prediction Accuracy: 94.958% MPKI: 0.90772 Average ROB Occupancy at Mispredict: 270.725

ChampSim completed all CPUs

Region of Interest Statistics

CPU 0 cumulative IPC: 0.632772 instructions: 200000001 cycles: 316069706
ITLB TOTAL     ACCESS: 30646513  HIT: 30646513  MISS:     0  HIT %:   100  MISS %:     0  AVERAGE MISS PENALTY: 0
ITLB LOAD      ACCESS: 30646513  HIT: 30646513  MISS:     0  HIT %:   100  MISS %:     0  AVERAGE MISS PENALTY: 0
ITLB RFO       ACCESS:     0  HIT:     0  MISS:     0  HIT %:     0  MISS %:     0  AVERAGE MISS PENALTY: 0
ITLB PREFETCH  ACCESS:     0  HIT:     0  MISS:     0  HIT %:     0  MISS %:     0  AVERAGE MISS PENALTY: 0
ITLB WRITEBACK ACCESS:     0  HIT:     0  MISS:     0  HIT %:     0  MISS %:     0  AVERAGE MISS PENALTY: 0
ITLB PREFETCH  REQUESTED:     0  ISSUED:     0  USEFUL:     0  USELESS:     0
 USEFUL LOAD PREFETCHES:          0 PREFETCH ISSUED TO LOWER LEVEL:          0  ACCURACY: -nan
 TIMELY PREFETCHES:          0 LATE PREFETCHES: 0 DROPPED PREFETCHES: 0
ITLB AVERAGE MISS LATENCY: -nan cycles
DTLB TOTAL     ACCESS: 40489175  HIT: 40214075  MISS: 275100  HIT %: 99.3206  MISS %: 0.679441  AVERAGE MISS PENALTY: 87.8979
DTLB LOAD      ACCESS: 19646294  HIT: 19608963  MISS: 37331  HIT %: 99.81  MISS %: 0.190015  AVERAGE MISS PENALTY: 109
DTLB RFO       ACCESS: 20842881  HIT: 20605112  MISS: 237769  HIT %: 98.8592  MISS %: 1.14077  AVERAGE MISS PENALTY: 84.5847
DTLB PREFETCH  ACCESS:     0  HIT:     0  MISS:     0  HIT %:     0  MISS %:     0  AVERAGE MISS PENALTY: 0
DTLB WRITEBACK ACCESS:     0  HIT:     0  MISS:     0  HIT %:     0  MISS %:     0  AVERAGE MISS PENALTY: 0
DTLB PREFETCH  REQUESTED:     0  ISSUED:     0  USEFUL:     0  USELESS:     0
 USEFUL LOAD PREFETCHES:          0 PREFETCH ISSUED TO LOWER LEVEL:          0  ACCURACY: -nan
 TIMELY PREFETCHES:          0 LATE PREFETCHES: 0 DROPPED PREFETCHES: 0
DTLB AVERAGE MISS LATENCY: 87.8979 cycles
STLB TOTAL     ACCESS: 275100  HIT: 125826  MISS: 149274  HIT %: 45.7383  MISS %: 54.2617  AVERAGE MISS PENALTY: 100
STLB LOAD      ACCESS: 37331  HIT:     0  MISS: 37331  HIT %:     0  MISS %:   100  AVERAGE MISS PENALTY: 100
STLB RFO       ACCESS: 237769  HIT: 125826  MISS: 111943  HIT %: 52.9194  MISS %: 47.0806  AVERAGE MISS PENALTY: 100
STLB PREFETCH  ACCESS:     0  HIT:     0  MISS:     0  HIT %:     0  MISS %:     0  AVERAGE MISS PENALTY: 0
STLB WRITEBACK ACCESS:     0  HIT:     0  MISS:     0  HIT %:     0  MISS %:     0  AVERAGE MISS PENALTY: 0
STLB PREFETCH  REQUESTED:     0  ISSUED:     0  USEFUL:     0  USELESS:     0
 USEFUL LOAD PREFETCHES:          0 PREFETCH ISSUED TO LOWER LEVEL:          0  ACCURACY: -nan
 TIMELY PREFETCHES:          0 LATE PREFETCHES: 0 DROPPED PREFETCHES: 0
STLB AVERAGE MISS LATENCY: 100 cycles
L1D TOTAL     ACCESS: 65511367  HIT: 49741706  MISS: 15769661  HIT %: 75.9284  MISS %: 24.0716  AVERAGE MISS PENALTY: 6.79914e+06
L1D LOAD      ACCESS: 17560495  HIT: 16375477  MISS: 1185018  HIT %: 93.2518  MISS %: 6.7482  AVERAGE MISS PENALTY: 9.04764e+07
L1D RFO       ACCESS: 35155880  HIT: 21784531  MISS: 13371349  HIT %: 61.9655  MISS %: 38.0345  AVERAGE MISS PENALTY: 278.844
L1D PREFETCH  ACCESS: 12794992  HIT: 11581698  MISS: 1213294  HIT %: 90.5174  MISS %: 9.48257  AVERAGE MISS PENALTY: 247.283
L1D WRITEBACK ACCESS:     0  HIT:     0  MISS:     0  HIT %:     0  MISS %:     0  AVERAGE MISS PENALTY: 0
L1D PREFETCH  REQUESTED: 39160094  ISSUED: 25397638  USEFUL: 1202976  USELESS: 10322
 USEFUL LOAD PREFETCHES:    1202976 PREFETCH ISSUED TO LOWER LEVEL:  325966363  ACCURACY: 0.369049
 TIMELY PREFETCHES:    1202976 LATE PREFETCHES: 1262602 DROPPED PREFETCHES: 13762456
L1D AVERAGE MISS LATENCY: 270.006 cycles
L1I TOTAL     ACCESS: 42413122  HIT: 42413122  MISS:     0  HIT %:   100  MISS %:     0  AVERAGE MISS PENALTY: 0
L1I LOAD      ACCESS: 42413122  HIT: 42413122  MISS:     0  HIT %:   100  MISS %:     0  AVERAGE MISS PENALTY: 0
L1I RFO       ACCESS:     0  HIT:     0  MISS:     0  HIT %:     0  MISS %:     0  AVERAGE MISS PENALTY: 0
L1I PREFETCH  ACCESS:     0  HIT:     0  MISS:     0  HIT %:     0  MISS %:     0  AVERAGE MISS PENALTY: 0
L1I WRITEBACK ACCESS:     0  HIT:     0  MISS:     0  HIT %:     0  MISS %:     0  AVERAGE MISS PENALTY: 0
L1I PREFETCH  REQUESTED:     0  ISSUED:     0  USEFUL:     0  USELESS:     0
 USEFUL LOAD PREFETCHES:          0 PREFETCH ISSUED TO LOWER LEVEL:          0  ACCURACY: -nan
 TIMELY PREFETCHES:          0 LATE PREFETCHES: 0 DROPPED PREFETCHES: 0
L1I AVERAGE MISS LATENCY: -nan cycles
L2C TOTAL     ACCESS: 30643007  HIT: 20611890  MISS: 10031117  HIT %: 67.2646  MISS %: 32.7354  AVERAGE MISS PENALTY: 1.74517e+07
L2C LOAD      ACCESS: 1155608  HIT: 307913  MISS: 847695  HIT %: 26.6451  MISS %: 73.3549  AVERAGE MISS PENALTY: 2.06508e+08
L2C RFO       ACCESS: 13371348  HIT: 5729014  MISS: 7642334  HIT %: 42.8454  MISS %: 57.1546  AVERAGE MISS PENALTY: 448.138
L2C PREFETCH  ACCESS: 2744702  HIT: 1204102  MISS: 1540600  HIT %: 43.87  MISS %: 56.13  AVERAGE MISS PENALTY: 531.247
L2C WRITEBACK ACCESS: 13371349  HIT: 13370861  MISS:   488  HIT %: 99.9964  MISS %: 0.00364959  AVERAGE MISS PENALTY: 0
L2C PREFETCH  REQUESTED: 6871256  ISSUED: 6871236  USEFUL: 307827  USELESS: 1234699
 USEFUL LOAD PREFETCHES:     307827 PREFETCH ISSUED TO LOWER LEVEL:    4889300  ACCURACY: 6.29593
 TIMELY PREFETCHES:     307827 LATE PREFETCHES: 1194125 DROPPED PREFETCHES: 20
L2C AVERAGE MISS LATENCY: 451.604 cycles
LLC0 TOTAL     ACCESS: 2208618  HIT: 1358055  MISS: 850563  HIT %: 61.4889  MISS %: 38.5111  AVERAGE MISS PENALTY: 640.85
LLC0 LOAD      ACCESS: 46739  HIT:     0  MISS: 46739  HIT %:     0  MISS %:   100  AVERAGE MISS PENALTY: 550.924
LLC0 RFO       ACCESS: 955044  HIT: 409479  MISS: 545565  HIT %: 42.8754  MISS %: 57.1246  AVERAGE MISS PENALTY: 689.033
LLC0 PREFETCH  ACCESS: 251713  HIT:     0  MISS: 251713  HIT %:     0  MISS %:   100  AVERAGE MISS PENALTY: 569.782
LLC0 WRITEBACK ACCESS: 955122  HIT: 948576  MISS:  6546  HIT %: 99.3146  MISS %: 0.685357  AVERAGE MISS PENALTY: 0
LLC0 PREFETCH  REQUESTED:     0  ISSUED:     0  USEFUL:     0  USELESS: 252817
 USEFUL LOAD PREFETCHES:          0 PREFETCH ISSUED TO LOWER LEVEL:     251713  ACCURACY: 0
 TIMELY PREFETCHES:          0 LATE PREFETCHES: 0 DROPPED PREFETCHES: 0
LLC0 AVERAGE MISS LATENCY: 640.85 cycles
Deadblocks : 32401 Deadblock percentage : 69.3233

LLC1 TOTAL     ACCESS: 2208793  HIT: 1357617  MISS: 851176  HIT %: 61.4642  MISS %: 38.5358  AVERAGE MISS PENALTY: 644.007
LLC1 LOAD      ACCESS: 33930  HIT:    86  MISS: 33844  HIT %: 0.253463  MISS %: 99.7465  AVERAGE MISS PENALTY: 549.472
LLC1 RFO       ACCESS: 955082  HIT: 409033  MISS: 546049  HIT %: 42.827  MISS %: 57.173  AVERAGE MISS PENALTY: 691.559
LLC1 PREFETCH  ACCESS: 264614  HIT:     0  MISS: 264614  HIT %:     0  MISS %:   100  AVERAGE MISS PENALTY: 574.204
LLC1 WRITEBACK ACCESS: 955167  HIT: 948498  MISS:  6669  HIT %: 99.3018  MISS %: 0.698203  AVERAGE MISS PENALTY: 0
LLC1 PREFETCH  REQUESTED:     0  ISSUED:     0  USEFUL:     0  USELESS: 265745
 USEFUL LOAD PREFETCHES:          0 PREFETCH ISSUED TO LOWER LEVEL:     264614  ACCURACY: 0
 TIMELY PREFETCHES:          0 LATE PREFETCHES: 0 DROPPED PREFETCHES: 0
LLC1 AVERAGE MISS LATENCY: 644.007 cycles
LLC2 TOTAL     ACCESS: 2208820  HIT: 1357348  MISS: 851472  HIT %: 61.4513  MISS %: 38.5487  AVERAGE MISS PENALTY: 642.277
LLC2 LOAD      ACCESS: 23405  HIT:    80  MISS: 23325  HIT %: 0.341807  MISS %: 99.6582  AVERAGE MISS PENALTY: 572.046
LLC2 RFO       ACCESS: 955094  HIT: 408835  MISS: 546259  HIT %: 42.8057  MISS %: 57.1943  AVERAGE MISS PENALTY: 689.488
LLC2 PREFETCH  ACCESS: 275143  HIT:     0  MISS: 275143  HIT %:     0  MISS %:   100  AVERAGE MISS PENALTY: 570.244
LLC2 WRITEBACK ACCESS: 955178  HIT: 948433  MISS:  6745  HIT %: 99.2938  MISS %: 0.706151  AVERAGE MISS PENALTY: 0
LLC2 PREFETCH  REQUESTED:     0  ISSUED:     0  USEFUL:     1  USELESS: 276222
 USEFUL LOAD PREFETCHES:          1 PREFETCH ISSUED TO LOWER LEVEL:     275143  ACCURACY: 0.000363447
 TIMELY PREFETCHES:          1 LATE PREFETCHES: 0 DROPPED PREFETCHES: 0
LLC2 AVERAGE MISS LATENCY: 642.277 cycles
LLC3 TOTAL     ACCESS: 2208811  HIT: 1356986  MISS: 851825  HIT %: 61.4351  MISS %: 38.5649  AVERAGE MISS PENALTY: 644.442
LLC3 LOAD      ACCESS: 16295  HIT:    81  MISS: 16214  HIT %: 0.497085  MISS %: 99.5029  AVERAGE MISS PENALTY: 589.191
LLC3 RFO       ACCESS: 955088  HIT: 408385  MISS: 546703  HIT %: 42.7589  MISS %: 57.2411  AVERAGE MISS PENALTY: 693.08
LLC3 PREFETCH  ACCESS: 282261  HIT:    14  MISS: 282247  HIT %: 0.00495995  MISS %: 99.995  AVERAGE MISS PENALTY: 568.615
LLC3 WRITEBACK ACCESS: 955167  HIT: 948506  MISS:  6661  HIT %: 99.3026  MISS %: 0.697365  AVERAGE MISS PENALTY: 0
LLC3 PREFETCH  REQUESTED:     0  ISSUED:     0  USEFUL:     3  USELESS: 283706
 USEFUL LOAD PREFETCHES:          3 PREFETCH ISSUED TO LOWER LEVEL:     282247  ACCURACY: 0.0010629
 TIMELY PREFETCHES:          3 LATE PREFETCHES: 0 DROPPED PREFETCHES: 0
LLC3 AVERAGE MISS LATENCY: 644.442 cycles
LLC4 TOTAL     ACCESS: 2210588  HIT: 1359269  MISS: 851319  HIT %: 61.489  MISS %: 38.511  AVERAGE MISS PENALTY: 645.806
LLC4 LOAD      ACCESS: 14110  HIT:     0  MISS: 14110  HIT %:     0  MISS %:   100  AVERAGE MISS PENALTY: 588.276
LLC4 RFO       ACCESS: 955970  HIT: 409895  MISS: 546075  HIT %: 42.8774  MISS %: 57.1226  AVERAGE MISS PENALTY: 694.32
LLC4 PREFETCH  ACCESS: 284459  HIT:   109  MISS: 284350  HIT %: 0.0383184  MISS %: 99.9617  AVERAGE MISS PENALTY: 570.899
LLC4 WRITEBACK ACCESS: 956049  HIT: 949265  MISS:  6784  HIT %: 99.2904  MISS %: 0.709587  AVERAGE MISS PENALTY: 0
LLC4 PREFETCH  REQUESTED:     0  ISSUED:     0  USEFUL:     0  USELESS: 285374
 USEFUL LOAD PREFETCHES:          0 PREFETCH ISSUED TO LOWER LEVEL:     284350  ACCURACY: 0
 TIMELY PREFETCHES:          0 LATE PREFETCHES: 0 DROPPED PREFETCHES: 0
LLC4 AVERAGE MISS LATENCY: 645.806 cycles
LLC5 TOTAL     ACCESS: 2210597  HIT: 1359236  MISS: 851361  HIT %: 61.4873  MISS %: 38.5127  AVERAGE MISS PENALTY: 647.628
LLC5 LOAD      ACCESS: 14533  HIT:     0  MISS: 14533  HIT %:     0  MISS %:   100  AVERAGE MISS PENALTY: 595.715
LLC5 RFO       ACCESS: 955969  HIT: 409776  MISS: 546193  HIT %: 42.865  MISS %: 57.135  AVERAGE MISS PENALTY: 695.432
LLC5 PREFETCH  ACCESS: 284042  HIT:   111  MISS: 283931  HIT %: 0.0390787  MISS %: 99.9609  AVERAGE MISS PENALTY: 573.618
LLC5 WRITEBACK ACCESS: 956053  HIT: 949349  MISS:  6704  HIT %: 99.2988  MISS %: 0.701216  AVERAGE MISS PENALTY: 0
LLC5 PREFETCH  REQUESTED:     0  ISSUED:     0  USEFUL:     0  USELESS: 285120
 USEFUL LOAD PREFETCHES:          0 PREFETCH ISSUED TO LOWER LEVEL:     283932  ACCURACY: 0
 TIMELY PREFETCHES:          0 LATE PREFETCHES: 0 DROPPED PREFETCHES: 0
LLC5 AVERAGE MISS LATENCY: 647.628 cycles
LLC6 TOTAL     ACCESS: 2208610  HIT: 1356950  MISS: 851660  HIT %: 61.4391  MISS %: 38.5609  AVERAGE MISS PENALTY: 648.645
LLC6 LOAD      ACCESS: 13973  HIT:     0  MISS: 13973  HIT %:     0  MISS %:   100  AVERAGE MISS PENALTY: 595.958
LLC6 RFO       ACCESS: 955042  HIT: 408485  MISS: 546557  HIT %: 42.7714  MISS %: 57.2286  AVERAGE MISS PENALTY: 696.606
LLC6 PREFETCH  ACCESS: 284553  HIT:    64  MISS: 284489  HIT %: 0.0224914  MISS %: 99.9775  AVERAGE MISS PENALTY: 574.233
LLC6 WRITEBACK ACCESS: 955042  HIT: 948401  MISS:  6641  HIT %: 99.3046  MISS %: 0.695362  AVERAGE MISS PENALTY: 0
LLC6 PREFETCH  REQUESTED:     0  ISSUED:     0  USEFUL:     0  USELESS: 285717
 USEFUL LOAD PREFETCHES:          0 PREFETCH ISSUED TO LOWER LEVEL:     284489  ACCURACY: 0
 TIMELY PREFETCHES:          0 LATE PREFETCHES: 0 DROPPED PREFETCHES: 0
LLC6 AVERAGE MISS LATENCY: 648.645 cycles
LLC7 TOTAL     ACCESS: 2208616  HIT: 1357349  MISS: 851267  HIT %: 61.457  MISS %: 38.543  AVERAGE MISS PENALTY: 645.688
LLC7 LOAD      ACCESS: 14030  HIT:     0  MISS: 14030  HIT %:     0  MISS %:   100  AVERAGE MISS PENALTY: 609.075
LLC7 RFO       ACCESS: 955045  HIT: 409066  MISS: 545979  HIT %: 42.8321  MISS %: 57.1679  AVERAGE MISS PENALTY: 694.889
LLC7 PREFETCH  ACCESS: 284495  HIT:    63  MISS: 284432  HIT %: 0.0221445  MISS %: 99.9779  AVERAGE MISS PENALTY: 568.547
LLC7 WRITEBACK ACCESS: 955046  HIT: 948220  MISS:  6826  HIT %: 99.2853  MISS %: 0.71473  AVERAGE MISS PENALTY: 0
LLC7 PREFETCH  REQUESTED:     0  ISSUED:     0  USEFUL:     0  USELESS: 285392
 USEFUL LOAD PREFETCHES:          0 PREFETCH ISSUED TO LOWER LEVEL:     284432  ACCURACY: 0
 TIMELY PREFETCHES:          0 LATE PREFETCHES: 0 DROPPED PREFETCHES: 0
LLC7 AVERAGE MISS LATENCY: 645.688 cycles
ROI Average ROB Stall Cycles:	20.1813
ROI Total ROB Stalls Cycles:	263296877
ROI TOTAL ROB counter      :	13046594
ROI Average Load ROB Stall Cycles:	121.907
ROI Total Load ROB Stalls Cycle  :	202835802
ROI Total Load ROB stalls Counter:	1663859
Major fault: 0 Minor fault: 151938

