
*** ChampSim Multicore Out-of-Order Simulator ***

Warmup Instructions: 200000000
Simulation Instructions: 200000000
Number of CPUs: 1
threads:1

L1I Configuration:
L1I_SET:64
L1I_WAY:8
L1I_RQ_SIZE:64
L1I_WQ_SIZE:64
L1I_PQ_SIZE:8
L1I_MSHR_SIZE:8

L1D Configuration:
L1D_SET:64
L1D_WAY:12
L1D_RQ_SIZE:64
L1D_WQ_SIZE:64
L1D_PQ_SIZE:8
L1D_MSHR_SIZE:16

L2C Configuration:
L2C_SET:1024
L2C_WAY:8
L2C_RQ_SIZE:32
L2C_WQ_SIZE:32
L2C_PQ_SIZE:16
L2C_MSHR_SIZE:32

LLC Configuration:
LLC_SET:4096
LLC_WAY:16
LLC SLICES:8
LLC_RQ_SIZE:64
LLC_WQ_SIZE:64
LLC_PQ_SIZE:32
LLC_MSHR_SIZE:64

Interconnect OFF
Attacker deprioritize is: OFF
Off-chip DRAM Size: 4096 MB Channels: 1 Width: 64-bit Data Rate: 3200 MT/s
PAGE SIZE in KB: 4.000000 
PAGE SIZE in MB: 0.003906 
PAGE offset in bits: 12 
CEASER-S_LLC:0
MIRAGE : 1
CEASER_LATENCY:3
REMAP : OFF
Partitions : 1
Multi-Step : OFF
BFS : OFF

CPU 0 runs /home/anubhav/spec_2017/649.fotonik3d_s-1176B.champsimtrace.xz
CPU 0 Bimodal branch predictor
Initialize Hawkeye state
Initialize Hawkeye state
Initialize Hawkeye state
Initialize Hawkeye state
Initialize Hawkeye state
Initialize Hawkeye state
Initialize Hawkeye state
Initialize Hawkeye state
Heartbeat CPU 0 instructions: 10000003 cycles: 4251591 heartbeat IPC: 2.35206 cumulative IPC: 2.35206 (Simulation time: 0 hr 1 min 50 sec) 
 Total Blocks : 524288 Invalid Blocks : 440876
Heartbeat CPU 0 instructions: 20000002 cycles: 8502915 heartbeat IPC: 2.35221 cumulative IPC: 2.35213 (Simulation time: 0 hr 3 min 33 sec) 
 Total Blocks : 524288 Invalid Blocks : 372195
Heartbeat CPU 0 instructions: 30000000 cycles: 12754294 heartbeat IPC: 2.35218 cumulative IPC: 2.35215 (Simulation time: 0 hr 5 min 55 sec) 
 Total Blocks : 524288 Invalid Blocks : 313985
Heartbeat CPU 0 instructions: 40000003 cycles: 17005896 heartbeat IPC: 2.35206 cumulative IPC: 2.35213 (Simulation time: 0 hr 8 min 32 sec) 
 Total Blocks : 524288 Invalid Blocks : 264947
Heartbeat CPU 0 instructions: 50000001 cycles: 21257222 heartbeat IPC: 2.35221 cumulative IPC: 2.35214 (Simulation time: 0 hr 11 min 1 sec) 
 Total Blocks : 524288 Invalid Blocks : 223659
Heartbeat CPU 0 instructions: 60000000 cycles: 25508566 heartbeat IPC: 2.3522 cumulative IPC: 2.35215 (Simulation time: 0 hr 13 min 29 sec) 
 Total Blocks : 524288 Invalid Blocks : 188885
Heartbeat CPU 0 instructions: 70000001 cycles: 29760039 heartbeat IPC: 2.35213 cumulative IPC: 2.35215 (Simulation time: 0 hr 16 min 9 sec) 
 Total Blocks : 524288 Invalid Blocks : 159388
Heartbeat CPU 0 instructions: 80000001 cycles: 34011464 heartbeat IPC: 2.35215 cumulative IPC: 2.35215 (Simulation time: 0 hr 18 min 53 sec) 
 Total Blocks : 524288 Invalid Blocks : 134666
Heartbeat CPU 0 instructions: 90000003 cycles: 38262850 heartbeat IPC: 2.35217 cumulative IPC: 2.35215 (Simulation time: 0 hr 21 min 31 sec) 
 Total Blocks : 524288 Invalid Blocks : 113602
Heartbeat CPU 0 instructions: 100000002 cycles: 42514355 heartbeat IPC: 2.35211 cumulative IPC: 2.35215 (Simulation time: 0 hr 24 min 26 sec) 
 Total Blocks : 524288 Invalid Blocks : 95965
Heartbeat CPU 0 instructions: 110000000 cycles: 46765733 heartbeat IPC: 2.35218 cumulative IPC: 2.35215 (Simulation time: 0 hr 27 min 13 sec) 
 Total Blocks : 524288 Invalid Blocks : 81065
Heartbeat CPU 0 instructions: 120000001 cycles: 51017173 heartbeat IPC: 2.35214 cumulative IPC: 2.35215 (Simulation time: 0 hr 29 min 58 sec) 
 Total Blocks : 524288 Invalid Blocks : 68557
Heartbeat CPU 0 instructions: 130000002 cycles: 55268681 heartbeat IPC: 2.35211 cumulative IPC: 2.35215 (Simulation time: 0 hr 32 min 52 sec) 
 Total Blocks : 524288 Invalid Blocks : 57952
Heartbeat CPU 0 instructions: 140000003 cycles: 59520114 heartbeat IPC: 2.35215 cumulative IPC: 2.35215 (Simulation time: 0 hr 35 min 41 sec) 
 Total Blocks : 524288 Invalid Blocks : 48904
Heartbeat CPU 0 instructions: 150000002 cycles: 63771435 heartbeat IPC: 2.35221 cumulative IPC: 2.35215 (Simulation time: 0 hr 38 min 29 sec) 
 Total Blocks : 524288 Invalid Blocks : 41409
Heartbeat CPU 0 instructions: 160000000 cycles: 68022935 heartbeat IPC: 2.35211 cumulative IPC: 2.35215 (Simulation time: 0 hr 41 min 36 sec) 
 Total Blocks : 524288 Invalid Blocks : 34921
Heartbeat CPU 0 instructions: 170000001 cycles: 72274386 heartbeat IPC: 2.35214 cumulative IPC: 2.35215 (Simulation time: 0 hr 44 min 38 sec) 
 Total Blocks : 524288 Invalid Blocks : 29513
Heartbeat CPU 0 instructions: 180000000 cycles: 76525678 heartbeat IPC: 2.35223 cumulative IPC: 2.35215 (Simulation time: 0 hr 47 min 49 sec) 
 Total Blocks : 524288 Invalid Blocks : 24972
Heartbeat CPU 0 instructions: 190000003 cycles: 80777174 heartbeat IPC: 2.35211 cumulative IPC: 2.35215 (Simulation time: 0 hr 50 min 59 sec) 
 Total Blocks : 524288 Invalid Blocks : 21098
Heartbeat CPU 0 instructions: 200000001 cycles: 85028661 heartbeat IPC: 2.35212 cumulative IPC: 2.35215 (Simulation time: 0 hr 54 min 5 sec) 
 Total Blocks : 524288 Invalid Blocks : 17798

Warmup complete CPU 0 instructions: 200000001 cycles: 85028661 (Simulation time: 0 hr 54 min 5 sec) 

Heartbeat CPU 0 instructions: 210000003 cycles: 91923635 heartbeat IPC: 1.45033 cumulative IPC: 1.45033 (Simulation time: 0 hr 57 min 47 sec) 
 Total Blocks : 524288 Invalid Blocks : 15010
Heartbeat CPU 0 instructions: 220000000 cycles: 98817227 heartbeat IPC: 1.45062 cumulative IPC: 1.45048 (Simulation time: 1 hr 1 min 21 sec) 
 Total Blocks : 524288 Invalid Blocks : 12650
Heartbeat CPU 0 instructions: 230000000 cycles: 105711886 heartbeat IPC: 1.4504 cumulative IPC: 1.45045 (Simulation time: 1 hr 5 min 0 sec) 
 Total Blocks : 524288 Invalid Blocks : 10704
Heartbeat CPU 0 instructions: 240000001 cycles: 112605182 heartbeat IPC: 1.45069 cumulative IPC: 1.45051 (Simulation time: 1 hr 8 min 55 sec) 
 Total Blocks : 524288 Invalid Blocks : 8954
Heartbeat CPU 0 instructions: 250000002 cycles: 119501255 heartbeat IPC: 1.4501 cumulative IPC: 1.45043 (Simulation time: 1 hr 12 min 49 sec) 
 Total Blocks : 524288 Invalid Blocks : 7569
Heartbeat CPU 0 instructions: 260000002 cycles: 126393470 heartbeat IPC: 1.45091 cumulative IPC: 1.45051 (Simulation time: 1 hr 16 min 30 sec) 
 Total Blocks : 524288 Invalid Blocks : 6387
Heartbeat CPU 0 instructions: 270000000 cycles: 134988110 heartbeat IPC: 1.16352 cumulative IPC: 1.40114 (Simulation time: 1 hr 20 min 58 sec) 
 Total Blocks : 524288 Invalid Blocks : 5496
Heartbeat CPU 0 instructions: 280000000 cycles: 144354390 heartbeat IPC: 1.06766 cumulative IPC: 1.34849 (Simulation time: 1 hr 25 min 3 sec) 
 Total Blocks : 524288 Invalid Blocks : 4833
Heartbeat CPU 0 instructions: 290000003 cycles: 151245404 heartbeat IPC: 1.45117 cumulative IPC: 1.35917 (Simulation time: 1 hr 29 min 2 sec) 
 Total Blocks : 524288 Invalid Blocks : 4067
Heartbeat CPU 0 instructions: 300000000 cycles: 158138601 heartbeat IPC: 1.45071 cumulative IPC: 1.3678 (Simulation time: 1 hr 32 min 58 sec) 
 Total Blocks : 524288 Invalid Blocks : 3434
Heartbeat CPU 0 instructions: 310000000 cycles: 165031109 heartbeat IPC: 1.45085 cumulative IPC: 1.37496 (Simulation time: 1 hr 36 min 53 sec) 
 Total Blocks : 524288 Invalid Blocks : 2898
Heartbeat CPU 0 instructions: 320000000 cycles: 171925260 heartbeat IPC: 1.4505 cumulative IPC: 1.38095 (Simulation time: 1 hr 40 min 36 sec) 
 Total Blocks : 524288 Invalid Blocks : 2428
Heartbeat CPU 0 instructions: 330000000 cycles: 178816622 heartbeat IPC: 1.45109 cumulative IPC: 1.38611 (Simulation time: 1 hr 44 min 18 sec) 
 Total Blocks : 524288 Invalid Blocks : 2054
Heartbeat CPU 0 instructions: 340000001 cycles: 185712481 heartbeat IPC: 1.45015 cumulative IPC: 1.39049 (Simulation time: 1 hr 48 min 5 sec) 
 Total Blocks : 524288 Invalid Blocks : 1750
Heartbeat CPU 0 instructions: 350000002 cycles: 192603401 heartbeat IPC: 1.45119 cumulative IPC: 1.39438 (Simulation time: 1 hr 51 min 43 sec) 
 Total Blocks : 524288 Invalid Blocks : 1472
Heartbeat CPU 0 instructions: 360000002 cycles: 199497433 heartbeat IPC: 1.45053 cumulative IPC: 1.39776 (Simulation time: 1 hr 55 min 26 sec) 
 Total Blocks : 524288 Invalid Blocks : 1257
Heartbeat CPU 0 instructions: 370000003 cycles: 206389999 heartbeat IPC: 1.45084 cumulative IPC: 1.40078 (Simulation time: 1 hr 59 min 9 sec) 
 Total Blocks : 524288 Invalid Blocks : 1051
Heartbeat CPU 0 instructions: 380000000 cycles: 213281051 heartbeat IPC: 1.45116 cumulative IPC: 1.40348 (Simulation time: 2 hr 2 min 47 sec) 
 Total Blocks : 524288 Invalid Blocks : 863
Heartbeat CPU 0 instructions: 390000002 cycles: 220175044 heartbeat IPC: 1.45054 cumulative IPC: 1.40588 (Simulation time: 2 hr 6 min 30 sec) 
 Total Blocks : 524288 Invalid Blocks : 724
Heartbeat CPU 0 instructions: 400000003 cycles: 227067739 heartbeat IPC: 1.45081 cumulative IPC: 1.40806 (Simulation time: 2 hr 10 min 1 sec) 
 Total Blocks : 524288 Invalid Blocks : 628
Finished CPU 0 instructions: 200000002 cycles: 142039078 cumulative IPC: 1.40806 (Simulation time: 2 hr 10 min 1 sec) 

CPU 0 Branch Prediction Accuracy: 99.5695% MPKI: 0.083275 Average ROB Occupancy at Mispredict: 209.017

ChampSim completed all CPUs

Region of Interest Statistics

CPU 0 cumulative IPC: 1.40806 instructions: 200000002 cycles: 142039078
ITLB TOTAL     ACCESS: 32706037  HIT: 32706026  MISS:    11  HIT %:   100  MISS %: 3.36329e-05  AVERAGE MISS PENALTY: 127
ITLB LOAD      ACCESS: 32706037  HIT: 32706026  MISS:    11  HIT %:   100  MISS %: 3.36329e-05  AVERAGE MISS PENALTY: 127
ITLB RFO       ACCESS:     0  HIT:     0  MISS:     0  HIT %:     0  MISS %:     0  AVERAGE MISS PENALTY: 0
ITLB PREFETCH  ACCESS:     0  HIT:     0  MISS:     0  HIT %:     0  MISS %:     0  AVERAGE MISS PENALTY: 0
ITLB WRITEBACK ACCESS:     0  HIT:     0  MISS:     0  HIT %:     0  MISS %:     0  AVERAGE MISS PENALTY: 0
ITLB PREFETCH  REQUESTED:     0  ISSUED:     0  USEFUL:     0  USELESS:     0
 USEFUL LOAD PREFETCHES:          0 PREFETCH ISSUED TO LOWER LEVEL:          0  ACCURACY: -nan
 TIMELY PREFETCHES:          0 LATE PREFETCHES: 0 DROPPED PREFETCHES: 0
ITLB AVERAGE MISS LATENCY: 127 cycles
DTLB TOTAL     ACCESS: 33526928  HIT: 33480789  MISS: 46139  HIT %: 99.8624  MISS %: 0.137618  AVERAGE MISS PENALTY: 67.6672
DTLB LOAD      ACCESS: 27860553  HIT: 27814865  MISS: 45688  HIT %: 99.836  MISS %: 0.163988  AVERAGE MISS PENALTY: 68.2464
DTLB RFO       ACCESS: 5666375  HIT: 5665924  MISS:   451  HIT %: 99.992  MISS %: 0.00795923  AVERAGE MISS PENALTY: 9
DTLB PREFETCH  ACCESS:     0  HIT:     0  MISS:     0  HIT %:     0  MISS %:     0  AVERAGE MISS PENALTY: 0
DTLB WRITEBACK ACCESS:     0  HIT:     0  MISS:     0  HIT %:     0  MISS %:     0  AVERAGE MISS PENALTY: 0
DTLB PREFETCH  REQUESTED:     0  ISSUED:     0  USEFUL:     0  USELESS:     0
 USEFUL LOAD PREFETCHES:          0 PREFETCH ISSUED TO LOWER LEVEL:          0  ACCURACY: -nan
 TIMELY PREFETCHES:          0 LATE PREFETCHES: 0 DROPPED PREFETCHES: 0
DTLB AVERAGE MISS LATENCY: 67.6672 cycles
STLB TOTAL     ACCESS: 46150  HIT: 19136  MISS: 27014  HIT %: 41.4648  MISS %: 58.5352  AVERAGE MISS PENALTY: 100
STLB LOAD      ACCESS: 45699  HIT: 18685  MISS: 27014  HIT %: 40.8871  MISS %: 59.1129  AVERAGE MISS PENALTY: 100
STLB RFO       ACCESS:   451  HIT:   451  MISS:     0  HIT %:   100  MISS %:     0  AVERAGE MISS PENALTY: 0
STLB PREFETCH  ACCESS:     0  HIT:     0  MISS:     0  HIT %:     0  MISS %:     0  AVERAGE MISS PENALTY: 0
STLB WRITEBACK ACCESS:     0  HIT:     0  MISS:     0  HIT %:     0  MISS %:     0  AVERAGE MISS PENALTY: 0
STLB PREFETCH  REQUESTED:     0  ISSUED:     0  USEFUL:     0  USELESS:     0
 USEFUL LOAD PREFETCHES:          0 PREFETCH ISSUED TO LOWER LEVEL:          0  ACCURACY: -nan
 TIMELY PREFETCHES:          0 LATE PREFETCHES: 0 DROPPED PREFETCHES: 0
STLB AVERAGE MISS LATENCY: 100 cycles
L1D TOTAL     ACCESS: 66718577  HIT: 64103744  MISS: 2614833  HIT %: 96.0808  MISS %: 3.9192  AVERAGE MISS PENALTY: 1.15082e+06
L1D LOAD      ACCESS: 27526055  HIT: 27451742  MISS: 74313  HIT %: 99.73  MISS %: 0.269973  AVERAGE MISS PENALTY: 4.04893e+07
L1D RFO       ACCESS: 14139406  HIT: 14136354  MISS:  3052  HIT %: 99.9784  MISS %: 0.0215851  AVERAGE MISS PENALTY: 45656.7
L1D PREFETCH  ACCESS: 25053116  HIT: 22515648  MISS: 2537468  HIT %: 89.8716  MISS %: 10.1284  AVERAGE MISS PENALTY: 76.8933
L1D WRITEBACK ACCESS:     0  HIT:     0  MISS:     0  HIT %:     0  MISS %:     0  AVERAGE MISS PENALTY: 0
L1D PREFETCH  REQUESTED: 33588759  ISSUED: 32076910  USEFUL: 2526769  USELESS: 10699
 USEFUL LOAD PREFETCHES:    2526769 PREFETCH ISSUED TO LOWER LEVEL:    6502343  ACCURACY: 38.8594
 TIMELY PREFETCHES:    2526769 LATE PREFETCHES: 23406 DROPPED PREFETCHES: 1511849
L1D AVERAGE MISS LATENCY: 132.013 cycles
L1I TOTAL     ACCESS: 44906619  HIT: 44906342  MISS:   277  HIT %: 99.9994  MISS %: 0.000616836  AVERAGE MISS PENALTY: 187.134
L1I LOAD      ACCESS: 44906619  HIT: 44906342  MISS:   277  HIT %: 99.9994  MISS %: 0.000616836  AVERAGE MISS PENALTY: 187.134
L1I RFO       ACCESS:     0  HIT:     0  MISS:     0  HIT %:     0  MISS %:     0  AVERAGE MISS PENALTY: 0
L1I PREFETCH  ACCESS:     0  HIT:     0  MISS:     0  HIT %:     0  MISS %:     0  AVERAGE MISS PENALTY: 0
L1I WRITEBACK ACCESS:     0  HIT:     0  MISS:     0  HIT %:     0  MISS %:     0  AVERAGE MISS PENALTY: 0
L1I PREFETCH  REQUESTED:     0  ISSUED:     0  USEFUL:     0  USELESS:     0
 USEFUL LOAD PREFETCHES:          0 PREFETCH ISSUED TO LOWER LEVEL:          0  ACCURACY: -nan
 TIMELY PREFETCHES:          0 LATE PREFETCHES: 0 DROPPED PREFETCHES: 0
L1I AVERAGE MISS LATENCY: 187.134 cycles
L2C TOTAL     ACCESS: 8251121  HIT: 6517808  MISS: 1733313  HIT %: 78.993  MISS %: 21.007  AVERAGE MISS PENALTY: 1.62398e+06
L2C LOAD      ACCESS: 74377  HIT: 27922  MISS: 46455  HIT %: 37.5412  MISS %: 62.4588  AVERAGE MISS PENALTY: 6.05844e+07
L2C RFO       ACCESS:  3051  HIT:  3045  MISS:     6  HIT %: 99.8033  MISS %: 0.196657  AVERAGE MISS PENALTY: 246.667
L2C PREFETCH  ACCESS: 6445038  HIT: 4758186  MISS: 1686852  HIT %: 73.8271  MISS %: 26.1729  AVERAGE MISS PENALTY: 251.768
L2C WRITEBACK ACCESS: 1728655  HIT: 1728655  MISS:     0  HIT %:   100  MISS %:     0  AVERAGE MISS PENALTY: 0
L2C PREFETCH  REQUESTED: 6965094  ISSUED: 6965083  USEFUL:  2280  USELESS: 1684655
 USEFUL LOAD PREFETCHES:       2280 PREFETCH ISSUED TO LOWER LEVEL:    3622348  ACCURACY: 0.0629426
 TIMELY PREFETCHES:       2280 LATE PREFETCHES: 19144 DROPPED PREFETCHES: 11
L2C AVERAGE MISS LATENCY: 250.642 cycles
LLC0 TOTAL     ACCESS: 431973  HIT: 213921  MISS: 218052  HIT %: 49.5218  MISS %: 50.4782  AVERAGE MISS PENALTY: 209.464
LLC0 LOAD      ACCESS: 27005  HIT:    28  MISS: 26977  HIT %: 0.103685  MISS %: 99.8963  AVERAGE MISS PENALTY: 178.116
LLC0 RFO       ACCESS:     0  HIT:     0  MISS:     0  HIT %:     0  MISS %:     0  AVERAGE MISS PENALTY: 0
LLC0 PREFETCH  ACCESS: 189607  HIT:   953  MISS: 188654  HIT %: 0.502619  MISS %: 99.4974  AVERAGE MISS PENALTY: 216.635
LLC0 WRITEBACK ACCESS: 215361  HIT: 212940  MISS:  2421  HIT %: 98.8758  MISS %: 1.12416  AVERAGE MISS PENALTY: 0
LLC0 PREFETCH  REQUESTED:     0  ISSUED:     0  USEFUL:     2  USELESS: 186868
 USEFUL LOAD PREFETCHES:          2 PREFETCH ISSUED TO LOWER LEVEL:     188655  ACCURACY: 0.00106014
 TIMELY PREFETCHES:          2 LATE PREFETCHES: 0 DROPPED PREFETCHES: 0
LLC0 AVERAGE MISS LATENCY: 209.464 cycles
Deadblocks : 26975 Deadblock percentage : 99.9926

LLC1 TOTAL     ACCESS: 431983  HIT: 213863  MISS: 218120  HIT %: 49.5073  MISS %: 50.4927  AVERAGE MISS PENALTY: 212.328
LLC1 LOAD      ACCESS:  4064  HIT:    32  MISS:  4032  HIT %: 0.787402  MISS %: 99.2126  AVERAGE MISS PENALTY: 236.523
LLC1 RFO       ACCESS:     0  HIT:     0  MISS:     0  HIT %:     0  MISS %:     0  AVERAGE MISS PENALTY: 0
LLC1 PREFETCH  ACCESS: 212551  HIT:   933  MISS: 211618  HIT %: 0.438953  MISS %: 99.561  AVERAGE MISS PENALTY: 214.346
LLC1 WRITEBACK ACCESS: 215368  HIT: 212898  MISS:  2470  HIT %: 98.8531  MISS %: 1.14687  AVERAGE MISS PENALTY: 0
LLC1 PREFETCH  REQUESTED:     0  ISSUED:     0  USEFUL:     1  USELESS: 210680
 USEFUL LOAD PREFETCHES:          1 PREFETCH ISSUED TO LOWER LEVEL:     211618  ACCURACY: 0.00047255
 TIMELY PREFETCHES:          1 LATE PREFETCHES: 0 DROPPED PREFETCHES: 0
LLC1 AVERAGE MISS LATENCY: 212.328 cycles
LLC2 TOTAL     ACCESS: 431999  HIT: 213850  MISS: 218149  HIT %: 49.5024  MISS %: 50.4976  AVERAGE MISS PENALTY: 214.713
LLC2 LOAD      ACCESS:    74  HIT:    20  MISS:    54  HIT %: 27.027  MISS %: 72.973  AVERAGE MISS PENALTY: 190.907
LLC2 RFO       ACCESS:     1  HIT:     0  MISS:     1  HIT %:     0  MISS %:   100  AVERAGE MISS PENALTY: 296
LLC2 PREFETCH  ACCESS: 216553  HIT:   961  MISS: 215592  HIT %: 0.443771  MISS %: 99.5562  AVERAGE MISS PENALTY: 217.21
LLC2 WRITEBACK ACCESS: 215371  HIT: 212869  MISS:  2502  HIT %: 98.8383  MISS %: 1.16172  AVERAGE MISS PENALTY: 0
LLC2 PREFETCH  REQUESTED:     0  ISSUED:     0  USEFUL:     3  USELESS: 213496
 USEFUL LOAD PREFETCHES:          3 PREFETCH ISSUED TO LOWER LEVEL:     215592  ACCURACY: 0.00139152
 TIMELY PREFETCHES:          3 LATE PREFETCHES: 0 DROPPED PREFETCHES: 0
LLC2 AVERAGE MISS LATENCY: 214.713 cycles
LLC3 TOTAL     ACCESS: 432066  HIT: 213891  MISS: 218175  HIT %: 49.5042  MISS %: 50.4958  AVERAGE MISS PENALTY: 203.581
LLC3 LOAD      ACCESS:    73  HIT:    31  MISS:    42  HIT %: 42.4658  MISS %: 57.5342  AVERAGE MISS PENALTY: 213.024
LLC3 RFO       ACCESS:     1  HIT:     0  MISS:     1  HIT %:     0  MISS %:   100  AVERAGE MISS PENALTY: 178
LLC3 PREFETCH  ACCESS: 216624  HIT:   998  MISS: 215626  HIT %: 0.460706  MISS %: 99.5393  AVERAGE MISS PENALTY: 205.945
LLC3 WRITEBACK ACCESS: 215368  HIT: 212862  MISS:  2506  HIT %: 98.8364  MISS %: 1.16359  AVERAGE MISS PENALTY: 0
LLC3 PREFETCH  REQUESTED:     0  ISSUED:     0  USEFUL:     4  USELESS: 213473
 USEFUL LOAD PREFETCHES:          4 PREFETCH ISSUED TO LOWER LEVEL:     215626  ACCURACY: 0.00185506
 TIMELY PREFETCHES:          4 LATE PREFETCHES: 0 DROPPED PREFETCHES: 0
LLC3 AVERAGE MISS LATENCY: 203.581 cycles
LLC4 TOTAL     ACCESS: 432000  HIT: 213807  MISS: 218193  HIT %: 49.4924  MISS %: 50.5076  AVERAGE MISS PENALTY: 207.431
LLC4 LOAD      ACCESS:    62  HIT:    30  MISS:    32  HIT %: 48.3871  MISS %: 51.6129  AVERAGE MISS PENALTY: 197.969
LLC4 RFO       ACCESS:     1  HIT:     0  MISS:     1  HIT %:     0  MISS %:   100  AVERAGE MISS PENALTY: 178
LLC4 PREFETCH  ACCESS: 216564  HIT:   937  MISS: 215627  HIT %: 0.432667  MISS %: 99.5673  AVERAGE MISS PENALTY: 209.869
LLC4 WRITEBACK ACCESS: 215373  HIT: 212840  MISS:  2533  HIT %: 98.8239  MISS %: 1.1761  AVERAGE MISS PENALTY: 0
LLC4 PREFETCH  REQUESTED:     0  ISSUED:     0  USEFUL:     7  USELESS: 213382
 USEFUL LOAD PREFETCHES:          7 PREFETCH ISSUED TO LOWER LEVEL:     215627  ACCURACY: 0.00324635
 TIMELY PREFETCHES:          7 LATE PREFETCHES: 0 DROPPED PREFETCHES: 0
LLC4 AVERAGE MISS LATENCY: 207.431 cycles
LLC5 TOTAL     ACCESS: 432001  HIT: 213869  MISS: 218132  HIT %: 49.5066  MISS %: 50.4934  AVERAGE MISS PENALTY: 211.834
LLC5 LOAD      ACCESS:    55  HIT:    22  MISS:    33  HIT %:    40  MISS %:    60  AVERAGE MISS PENALTY: 219.121
LLC5 RFO       ACCESS:     1  HIT:     0  MISS:     1  HIT %:     0  MISS %:   100  AVERAGE MISS PENALTY: 178
LLC5 PREFETCH  ACCESS: 216572  HIT:   944  MISS: 215628  HIT %: 0.435883  MISS %: 99.5641  AVERAGE MISS PENALTY: 214.259
LLC5 WRITEBACK ACCESS: 215373  HIT: 212903  MISS:  2470  HIT %: 98.8532  MISS %: 1.14685  AVERAGE MISS PENALTY: 0
LLC5 PREFETCH  REQUESTED:     0  ISSUED:     0  USEFUL:     3  USELESS: 213493
 USEFUL LOAD PREFETCHES:          3 PREFETCH ISSUED TO LOWER LEVEL:     215628  ACCURACY: 0.00139128
 TIMELY PREFETCHES:          3 LATE PREFETCHES: 0 DROPPED PREFETCHES: 0
LLC5 AVERAGE MISS LATENCY: 211.834 cycles
LLC6 TOTAL     ACCESS: 432072  HIT: 213917  MISS: 218155  HIT %: 49.5096  MISS %: 50.4904  AVERAGE MISS PENALTY: 216.647
LLC6 LOAD      ACCESS:    72  HIT:    28  MISS:    44  HIT %: 38.8889  MISS %: 61.1111  AVERAGE MISS PENALTY: 223.909
LLC6 RFO       ACCESS:     1  HIT:     0  MISS:     1  HIT %:     0  MISS %:   100  AVERAGE MISS PENALTY: 178
LLC6 PREFETCH  ACCESS: 216628  HIT:  1012  MISS: 215616  HIT %: 0.46716  MISS %: 99.5328  AVERAGE MISS PENALTY: 219.152
LLC6 WRITEBACK ACCESS: 215371  HIT: 212877  MISS:  2494  HIT %: 98.842  MISS %: 1.158  AVERAGE MISS PENALTY: 0
LLC6 PREFETCH  REQUESTED:     0  ISSUED:     0  USEFUL:     3  USELESS: 213449
 USEFUL LOAD PREFETCHES:          3 PREFETCH ISSUED TO LOWER LEVEL:     215616  ACCURACY: 0.00139136
 TIMELY PREFETCHES:          3 LATE PREFETCHES: 0 DROPPED PREFETCHES: 0
LLC6 AVERAGE MISS LATENCY: 216.647 cycles
LLC7 TOTAL     ACCESS: 432168  HIT: 214038  MISS: 218130  HIT %: 49.5266  MISS %: 50.4734  AVERAGE MISS PENALTY: 216.571
LLC7 LOAD      ACCESS:    81  HIT:    43  MISS:    38  HIT %: 53.0864  MISS %: 46.9136  AVERAGE MISS PENALTY: 206.368
LLC7 RFO       ACCESS:     1  HIT:     0  MISS:     1  HIT %:     0  MISS %:   100  AVERAGE MISS PENALTY: 244
LLC7 PREFETCH  ACCESS: 216722  HIT:  1092  MISS: 215630  HIT %: 0.503871  MISS %: 99.4961  AVERAGE MISS PENALTY: 219.045
LLC7 WRITEBACK ACCESS: 215364  HIT: 212903  MISS:  2461  HIT %: 98.8573  MISS %: 1.14272  AVERAGE MISS PENALTY: 0
LLC7 PREFETCH  REQUESTED:     0  ISSUED:     0  USEFUL:     6  USELESS: 213513
 USEFUL LOAD PREFETCHES:          6 PREFETCH ISSUED TO LOWER LEVEL:     215631  ACCURACY: 0.00278253
 TIMELY PREFETCHES:          6 LATE PREFETCHES: 0 DROPPED PREFETCHES: 0
LLC7 AVERAGE MISS LATENCY: 216.571 cycles
ROI Average ROB Stall Cycles:	7.02426
ROI Total ROB Stalls Cycles:	96074782
ROI TOTAL ROB counter      :	13677564
ROI Average Load ROB Stall Cycles:	11.4208
ROI Total Load ROB Stalls Cycle  :	36744593
ROI Total Load ROB stalls Counter:	3217339
Major fault: 0 Minor fault: 54494

