
*** ChampSim Multicore Out-of-Order Simulator ***

Warmup Instructions: 200000000
Simulation Instructions: 200000000
Number of CPUs: 1
threads:1

L1I Configuration:
L1I_SET:64
L1I_WAY:8
L1I_RQ_SIZE:64
L1I_WQ_SIZE:64
L1I_PQ_SIZE:8
L1I_MSHR_SIZE:8

L1D Configuration:
L1D_SET:64
L1D_WAY:12
L1D_RQ_SIZE:64
L1D_WQ_SIZE:64
L1D_PQ_SIZE:8
L1D_MSHR_SIZE:16

L2C Configuration:
L2C_SET:1024
L2C_WAY:8
L2C_RQ_SIZE:32
L2C_WQ_SIZE:32
L2C_PQ_SIZE:16
L2C_MSHR_SIZE:32

LLC Configuration:
LLC_SET:4096
LLC_WAY:16
LLC SLICES:8
LLC_RQ_SIZE:64
LLC_WQ_SIZE:64
LLC_PQ_SIZE:32
LLC_MSHR_SIZE:64

Interconnect OFF
Attacker deprioritize is: OFF
Off-chip DRAM Size: 4096 MB Channels: 1 Width: 64-bit Data Rate: 3200 MT/s
PAGE SIZE in KB: 4.000000 
PAGE SIZE in MB: 0.003906 
PAGE offset in bits: 12 
CEASER-S_LLC:0
MIRAGE : 1
CEASER_LATENCY:3
REMAP : OFF
Partitions : 1
Multi-Step : OFF
BFS : OFF

CPU 0 runs /home/anubhav/spec_2017/649.fotonik3d_s-7084B.champsimtrace.xz
CPU 0 Bimodal branch predictor
Initialize Hawkeye state
Initialize Hawkeye state
Initialize Hawkeye state
Initialize Hawkeye state
Initialize Hawkeye state
Initialize Hawkeye state
Initialize Hawkeye state
Initialize Hawkeye state
Heartbeat CPU 0 instructions: 10000000 cycles: 4056901 heartbeat IPC: 2.46494 cumulative IPC: 2.46494 (Simulation time: 0 hr 2 min 15 sec) 
 Total Blocks : 524288 Invalid Blocks : 375364
Heartbeat CPU 0 instructions: 20000000 cycles: 8114072 heartbeat IPC: 2.46477 cumulative IPC: 2.46485 (Simulation time: 0 hr 5 min 2 sec) 
 Total Blocks : 524288 Invalid Blocks : 272361
Heartbeat CPU 0 instructions: 30000001 cycles: 12165432 heartbeat IPC: 2.46831 cumulative IPC: 2.466 (Simulation time: 0 hr 8 min 34 sec) 
 Total Blocks : 524288 Invalid Blocks : 203496
Heartbeat CPU 0 instructions: 40000001 cycles: 16214860 heartbeat IPC: 2.46948 cumulative IPC: 2.46687 (Simulation time: 0 hr 12 min 2 sec) 
 Total Blocks : 524288 Invalid Blocks : 152103
Heartbeat CPU 0 instructions: 50000001 cycles: 20264114 heartbeat IPC: 2.46959 cumulative IPC: 2.46742 (Simulation time: 0 hr 15 min 47 sec) 
 Total Blocks : 524288 Invalid Blocks : 113988
Heartbeat CPU 0 instructions: 60000001 cycles: 24311505 heartbeat IPC: 2.47073 cumulative IPC: 2.46797 (Simulation time: 0 hr 19 min 25 sec) 
 Total Blocks : 524288 Invalid Blocks : 85297
Heartbeat CPU 0 instructions: 70000003 cycles: 28358190 heartbeat IPC: 2.47116 cumulative IPC: 2.46842 (Simulation time: 0 hr 23 min 15 sec) 
 Total Blocks : 524288 Invalid Blocks : 63863
Heartbeat CPU 0 instructions: 80000002 cycles: 32414674 heartbeat IPC: 2.46519 cumulative IPC: 2.46802 (Simulation time: 0 hr 27 min 16 sec) 
 Total Blocks : 524288 Invalid Blocks : 47998
Heartbeat CPU 0 instructions: 90000002 cycles: 36465288 heartbeat IPC: 2.46876 cumulative IPC: 2.4681 (Simulation time: 0 hr 31 min 15 sec) 
 Total Blocks : 524288 Invalid Blocks : 36088
Heartbeat CPU 0 instructions: 100000000 cycles: 40511791 heartbeat IPC: 2.47127 cumulative IPC: 2.46842 (Simulation time: 0 hr 35 min 10 sec) 
 Total Blocks : 524288 Invalid Blocks : 27089
Heartbeat CPU 0 instructions: 110000000 cycles: 44558357 heartbeat IPC: 2.47123 cumulative IPC: 2.46867 (Simulation time: 0 hr 39 min 9 sec) 
 Total Blocks : 524288 Invalid Blocks : 20182
Heartbeat CPU 0 instructions: 120000003 cycles: 48604694 heartbeat IPC: 2.47137 cumulative IPC: 2.4689 (Simulation time: 0 hr 43 min 18 sec) 
 Total Blocks : 524288 Invalid Blocks : 15144
Heartbeat CPU 0 instructions: 130000002 cycles: 52650661 heartbeat IPC: 2.4716 cumulative IPC: 2.4691 (Simulation time: 0 hr 47 min 33 sec) 
 Total Blocks : 524288 Invalid Blocks : 11323
Heartbeat CPU 0 instructions: 140000000 cycles: 56702205 heartbeat IPC: 2.46819 cumulative IPC: 2.46904 (Simulation time: 0 hr 51 min 51 sec) 
 Total Blocks : 524288 Invalid Blocks : 8455
Heartbeat CPU 0 instructions: 150000000 cycles: 60761250 heartbeat IPC: 2.46363 cumulative IPC: 2.46868 (Simulation time: 0 hr 56 min 13 sec) 
 Total Blocks : 524288 Invalid Blocks : 6317
Heartbeat CPU 0 instructions: 160000001 cycles: 64812805 heartbeat IPC: 2.46819 cumulative IPC: 2.46865 (Simulation time: 1 hr 0 min 56 sec) 
 Total Blocks : 524288 Invalid Blocks : 4734
Heartbeat CPU 0 instructions: 170000002 cycles: 68862541 heartbeat IPC: 2.4693 cumulative IPC: 2.46869 (Simulation time: 1 hr 5 min 46 sec) 
 Total Blocks : 524288 Invalid Blocks : 3549
Heartbeat CPU 0 instructions: 180000000 cycles: 72911122 heartbeat IPC: 2.47 cumulative IPC: 2.46876 (Simulation time: 1 hr 10 min 25 sec) 
 Total Blocks : 524288 Invalid Blocks : 2663
Heartbeat CPU 0 instructions: 190000003 cycles: 76957036 heartbeat IPC: 2.47163 cumulative IPC: 2.46891 (Simulation time: 1 hr 15 min 2 sec) 
 Total Blocks : 524288 Invalid Blocks : 1973
Heartbeat CPU 0 instructions: 200000002 cycles: 81002245 heartbeat IPC: 2.47206 cumulative IPC: 2.46907 (Simulation time: 1 hr 19 min 55 sec) 
 Total Blocks : 524288 Invalid Blocks : 1458

Warmup complete CPU 0 instructions: 200000002 cycles: 81002245 (Simulation time: 1 hr 19 min 55 sec) 

Heartbeat CPU 0 instructions: 210000003 cycles: 87143580 heartbeat IPC: 1.62831 cumulative IPC: 1.62831 (Simulation time: 1 hr 25 min 36 sec) 
 Total Blocks : 524288 Invalid Blocks : 1116
Heartbeat CPU 0 instructions: 220000000 cycles: 93278663 heartbeat IPC: 1.62997 cumulative IPC: 1.62914 (Simulation time: 1 hr 31 min 7 sec) 
 Total Blocks : 524288 Invalid Blocks : 831
Heartbeat CPU 0 instructions: 230000000 cycles: 99405991 heartbeat IPC: 1.63203 cumulative IPC: 1.6301 (Simulation time: 1 hr 36 min 34 sec) 
 Total Blocks : 524288 Invalid Blocks : 623
Heartbeat CPU 0 instructions: 240000001 cycles: 105540254 heartbeat IPC: 1.63019 cumulative IPC: 1.63012 (Simulation time: 1 hr 42 min 4 sec) 
 Total Blocks : 524288 Invalid Blocks : 476
Heartbeat CPU 0 instructions: 250000000 cycles: 111652519 heartbeat IPC: 1.63605 cumulative IPC: 1.63131 (Simulation time: 1 hr 47 min 39 sec) 
 Total Blocks : 524288 Invalid Blocks : 366
Heartbeat CPU 0 instructions: 260000001 cycles: 117785043 heartbeat IPC: 1.63065 cumulative IPC: 1.6312 (Simulation time: 1 hr 53 min 6 sec) 
 Total Blocks : 524288 Invalid Blocks : 250
Heartbeat CPU 0 instructions: 270000000 cycles: 123931803 heartbeat IPC: 1.62687 cumulative IPC: 1.63058 (Simulation time: 1 hr 58 min 46 sec) 
 Total Blocks : 524288 Invalid Blocks : 192
Heartbeat CPU 0 instructions: 280000000 cycles: 130061843 heartbeat IPC: 1.63131 cumulative IPC: 1.63067 (Simulation time: 2 hr 4 min 22 sec) 
 Total Blocks : 524288 Invalid Blocks : 144
Heartbeat CPU 0 instructions: 290000001 cycles: 136207234 heartbeat IPC: 1.62724 cumulative IPC: 1.63029 (Simulation time: 2 hr 9 min 47 sec) 
 Total Blocks : 524288 Invalid Blocks : 110
Heartbeat CPU 0 instructions: 300000000 cycles: 142354008 heartbeat IPC: 1.62687 cumulative IPC: 1.62994 (Simulation time: 2 hr 15 min 23 sec) 
 Total Blocks : 524288 Invalid Blocks : 83
Heartbeat CPU 0 instructions: 310000001 cycles: 148473015 heartbeat IPC: 1.63425 cumulative IPC: 1.63034 (Simulation time: 2 hr 21 min 3 sec) 
 Total Blocks : 524288 Invalid Blocks : 62
Heartbeat CPU 0 instructions: 320000001 cycles: 154595433 heartbeat IPC: 1.63334 cumulative IPC: 1.63059 (Simulation time: 2 hr 26 min 42 sec) 
 Total Blocks : 524288 Invalid Blocks : 45
Heartbeat CPU 0 instructions: 330000000 cycles: 160734504 heartbeat IPC: 1.62891 cumulative IPC: 1.63046 (Simulation time: 2 hr 32 min 5 sec) 
 Total Blocks : 524288 Invalid Blocks : 33
Heartbeat CPU 0 instructions: 340000002 cycles: 166876680 heartbeat IPC: 1.62809 cumulative IPC: 1.63029 (Simulation time: 2 hr 37 min 17 sec) 
 Total Blocks : 524288 Invalid Blocks : 25
Heartbeat CPU 0 instructions: 350000000 cycles: 173004954 heartbeat IPC: 1.63178 cumulative IPC: 1.63039 (Simulation time: 2 hr 42 min 12 sec) 
 Total Blocks : 524288 Invalid Blocks : 19
Heartbeat CPU 0 instructions: 360000003 cycles: 179138423 heartbeat IPC: 1.6304 cumulative IPC: 1.63039 (Simulation time: 2 hr 46 min 45 sec) 
 Total Blocks : 524288 Invalid Blocks : 16
Heartbeat CPU 0 instructions: 370000002 cycles: 185275531 heartbeat IPC: 1.62943 cumulative IPC: 1.63033 (Simulation time: 2 hr 51 min 4 sec) 
 Total Blocks : 524288 Invalid Blocks : 13
Heartbeat CPU 0 instructions: 380000000 cycles: 191374404 heartbeat IPC: 1.63965 cumulative IPC: 1.63085 (Simulation time: 2 hr 54 min 56 sec) 
 Total Blocks : 524288 Invalid Blocks : 11
Heartbeat CPU 0 instructions: 390000003 cycles: 197501460 heartbeat IPC: 1.63211 cumulative IPC: 1.63091 (Simulation time: 2 hr 59 min 17 sec) 
 Total Blocks : 524288 Invalid Blocks : 9
Heartbeat CPU 0 instructions: 400000002 cycles: 203638730 heartbeat IPC: 1.62939 cumulative IPC: 1.63084 (Simulation time: 3 hr 3 min 42 sec) 
 Total Blocks : 524288 Invalid Blocks : 8
Finished CPU 0 instructions: 200000000 cycles: 122636485 cumulative IPC: 1.63084 (Simulation time: 3 hr 3 min 42 sec) 

CPU 0 Branch Prediction Accuracy: 99.1861% MPKI: 0.05619 Average ROB Occupancy at Mispredict: 350.558

ChampSim completed all CPUs

Region of Interest Statistics

CPU 0 cumulative IPC: 1.63084 instructions: 200000000 cycles: 122636485
ITLB TOTAL     ACCESS: 32040539  HIT: 32040539  MISS:     0  HIT %:   100  MISS %:     0  AVERAGE MISS PENALTY: 0
ITLB LOAD      ACCESS: 32040539  HIT: 32040539  MISS:     0  HIT %:   100  MISS %:     0  AVERAGE MISS PENALTY: 0
ITLB RFO       ACCESS:     0  HIT:     0  MISS:     0  HIT %:     0  MISS %:     0  AVERAGE MISS PENALTY: 0
ITLB PREFETCH  ACCESS:     0  HIT:     0  MISS:     0  HIT %:     0  MISS %:     0  AVERAGE MISS PENALTY: 0
ITLB WRITEBACK ACCESS:     0  HIT:     0  MISS:     0  HIT %:     0  MISS %:     0  AVERAGE MISS PENALTY: 0
ITLB PREFETCH  REQUESTED:     0  ISSUED:     0  USEFUL:     0  USELESS:     0
 USEFUL LOAD PREFETCHES:          0 PREFETCH ISSUED TO LOWER LEVEL:          0  ACCURACY: -nan
 TIMELY PREFETCHES:          0 LATE PREFETCHES: 0 DROPPED PREFETCHES: 0
ITLB AVERAGE MISS LATENCY: -nan cycles
DTLB TOTAL     ACCESS: 53671015  HIT: 53597142  MISS: 73873  HIT %: 99.8624  MISS %: 0.13764  AVERAGE MISS PENALTY: 89.3465
DTLB LOAD      ACCESS: 46773149  HIT: 46701947  MISS: 71202  HIT %: 99.8478  MISS %: 0.152228  AVERAGE MISS PENALTY: 92.3456
DTLB RFO       ACCESS: 6897866  HIT: 6895195  MISS:  2671  HIT %: 99.9613  MISS %: 0.0387221  AVERAGE MISS PENALTY: 9.39648
DTLB PREFETCH  ACCESS:     0  HIT:     0  MISS:     0  HIT %:     0  MISS %:     0  AVERAGE MISS PENALTY: 0
DTLB WRITEBACK ACCESS:     0  HIT:     0  MISS:     0  HIT %:     0  MISS %:     0  AVERAGE MISS PENALTY: 0
DTLB PREFETCH  REQUESTED:     0  ISSUED:     0  USEFUL:     0  USELESS:     0
 USEFUL LOAD PREFETCHES:          0 PREFETCH ISSUED TO LOWER LEVEL:          0  ACCURACY: -nan
 TIMELY PREFETCHES:          0 LATE PREFETCHES: 0 DROPPED PREFETCHES: 0
DTLB AVERAGE MISS LATENCY: 89.3465 cycles
STLB TOTAL     ACCESS: 73873  HIT: 19263  MISS: 54610  HIT %: 26.0758  MISS %: 73.9242  AVERAGE MISS PENALTY: 100
STLB LOAD      ACCESS: 71202  HIT: 16592  MISS: 54610  HIT %: 23.3027  MISS %: 76.6973  AVERAGE MISS PENALTY: 100
STLB RFO       ACCESS:  2671  HIT:  2671  MISS:     0  HIT %:   100  MISS %:     0  AVERAGE MISS PENALTY: 0
STLB PREFETCH  ACCESS:     0  HIT:     0  MISS:     0  HIT %:     0  MISS %:     0  AVERAGE MISS PENALTY: 0
STLB WRITEBACK ACCESS:     0  HIT:     0  MISS:     0  HIT %:     0  MISS %:     0  AVERAGE MISS PENALTY: 0
STLB PREFETCH  REQUESTED:     0  ISSUED:     0  USEFUL:     0  USELESS:     0
 USEFUL LOAD PREFETCHES:          0 PREFETCH ISSUED TO LOWER LEVEL:          0  ACCURACY: -nan
 TIMELY PREFETCHES:          0 LATE PREFETCHES: 0 DROPPED PREFETCHES: 0
STLB AVERAGE MISS LATENCY: 100 cycles
L1D TOTAL     ACCESS: 72779926  HIT: 69301399  MISS: 3478527  HIT %: 95.2205  MISS %: 4.77951  AVERAGE MISS PENALTY: 193518
L1D LOAD      ACCESS: 45033614  HIT: 44902801  MISS: 130813  HIT %: 99.7095  MISS %: 0.290479  AVERAGE MISS PENALTY: 5.1449e+06
L1D RFO       ACCESS: 9834439  HIT: 9834439  MISS:     0  HIT %:   100  MISS %:     0  AVERAGE MISS PENALTY: 0
L1D PREFETCH  ACCESS: 17911873  HIT: 14564159  MISS: 3347714  HIT %: 81.3101  MISS %: 18.6899  AVERAGE MISS PENALTY: 40.5879
L1D WRITEBACK ACCESS:     0  HIT:     0  MISS:     0  HIT %:     0  MISS %:     0  AVERAGE MISS PENALTY: 0
L1D PREFETCH  REQUESTED: 20960695  ISSUED: 19736444  USEFUL: 3144515  USELESS: 203202
 USEFUL LOAD PREFETCHES:    3144515 PREFETCH ISSUED TO LOWER LEVEL:    3800982  ACCURACY: 82.729
 TIMELY PREFETCHES:    3144515 LATE PREFETCHES: 6960 DROPPED PREFETCHES: 1224251
L1D AVERAGE MISS LATENCY: 44.2098 cycles
L1I TOTAL     ACCESS: 41557445  HIT: 41557445  MISS:     0  HIT %:   100  MISS %:     0  AVERAGE MISS PENALTY: 0
L1I LOAD      ACCESS: 41557445  HIT: 41557445  MISS:     0  HIT %:   100  MISS %:     0  AVERAGE MISS PENALTY: 0
L1I RFO       ACCESS:     0  HIT:     0  MISS:     0  HIT %:     0  MISS %:     0  AVERAGE MISS PENALTY: 0
L1I PREFETCH  ACCESS:     0  HIT:     0  MISS:     0  HIT %:     0  MISS %:     0  AVERAGE MISS PENALTY: 0
L1I WRITEBACK ACCESS:     0  HIT:     0  MISS:     0  HIT %:     0  MISS %:     0  AVERAGE MISS PENALTY: 0
L1I PREFETCH  REQUESTED:     0  ISSUED:     0  USEFUL:     0  USELESS:     0
 USEFUL LOAD PREFETCHES:          0 PREFETCH ISSUED TO LOWER LEVEL:          0  ACCURACY: -nan
 TIMELY PREFETCHES:          0 LATE PREFETCHES: 0 DROPPED PREFETCHES: 0
L1I AVERAGE MISS LATENCY: -nan cycles
L2C TOTAL     ACCESS: 14246978  HIT: 10765595  MISS: 3481383  HIT %: 75.5641  MISS %: 24.4359  AVERAGE MISS PENALTY: 189346
L2C LOAD      ACCESS: 130501  HIT: 70500  MISS: 60001  HIT %: 54.0226  MISS %: 45.9774  AVERAGE MISS PENALTY: 1.097e+07
L2C RFO       ACCESS:     0  HIT:     0  MISS:     0  HIT %:     0  MISS %:     0  AVERAGE MISS PENALTY: 0
L2C PREFETCH  ACCESS: 13078011  HIT: 9656679  MISS: 3421332  HIT %: 73.839  MISS %: 26.161  AVERAGE MISS PENALTY: 286.08
L2C WRITEBACK ACCESS: 1038466  HIT: 1038416  MISS:    50  HIT %: 99.9952  MISS %: 0.00481479  AVERAGE MISS PENALTY: 0
L2C PREFETCH  REQUESTED: 12503157  ISSUED: 12426088  USEFUL: 70260  USELESS: 3351081
 USEFUL LOAD PREFETCHES:      70260 PREFETCH ISSUED TO LOWER LEVEL:    4304526  ACCURACY: 1.63224
 TIMELY PREFETCHES:      70260 LATE PREFETCHES: 4764 DROPPED PREFETCHES: 77069
L2C AVERAGE MISS LATENCY: 285.579 cycles
LLC0 TOTAL     ACCESS: 562464  HIT: 185425  MISS: 377039  HIT %: 32.9666  MISS %: 67.0334  AVERAGE MISS PENALTY: 273.844
LLC0 LOAD      ACCESS: 51195  HIT:  6677  MISS: 44518  HIT %: 13.0423  MISS %: 86.9577  AVERAGE MISS PENALTY: 250.764
LLC0 RFO       ACCESS:     0  HIT:     0  MISS:     0  HIT %:     0  MISS %:     0  AVERAGE MISS PENALTY: 0
LLC0 PREFETCH  ACCESS: 381463  HIT: 50688  MISS: 330775  HIT %: 13.2878  MISS %: 86.7122  AVERAGE MISS PENALTY: 278.396
LLC0 WRITEBACK ACCESS: 129806  HIT: 128060  MISS:  1746  HIT %: 98.6549  MISS %: 1.34508  AVERAGE MISS PENALTY: 0
LLC0 PREFETCH  REQUESTED:     0  ISSUED:     0  USEFUL:     1  USELESS: 330638
 USEFUL LOAD PREFETCHES:          1 PREFETCH ISSUED TO LOWER LEVEL:     330775  ACCURACY: 0.00030232
 TIMELY PREFETCHES:          1 LATE PREFETCHES: 0 DROPPED PREFETCHES: 0
LLC0 AVERAGE MISS LATENCY: 273.844 cycles
Deadblocks : 43770 Deadblock percentage : 98.3198

LLC1 TOTAL     ACCESS: 563519  HIT: 185259  MISS: 378260  HIT %: 32.8754  MISS %: 67.1246  AVERAGE MISS PENALTY: 276.235
LLC1 LOAD      ACCESS:  1497  HIT:   235  MISS:  1262  HIT %: 15.6981  MISS %: 84.3019  AVERAGE MISS PENALTY: 337.756
LLC1 RFO       ACCESS:     0  HIT:     0  MISS:     0  HIT %:     0  MISS %:     0  AVERAGE MISS PENALTY: 0
LLC1 PREFETCH  ACCESS: 432213  HIT: 56967  MISS: 375246  HIT %: 13.1803  MISS %: 86.8197  AVERAGE MISS PENALTY: 277.318
LLC1 WRITEBACK ACCESS: 129809  HIT: 128057  MISS:  1752  HIT %: 98.6503  MISS %: 1.34968  AVERAGE MISS PENALTY: 0
LLC1 PREFETCH  REQUESTED:     0  ISSUED:     0  USEFUL:     0  USELESS: 375033
 USEFUL LOAD PREFETCHES:          0 PREFETCH ISSUED TO LOWER LEVEL:     375246  ACCURACY: 0
 TIMELY PREFETCHES:          0 LATE PREFETCHES: 0 DROPPED PREFETCHES: 0
LLC1 AVERAGE MISS LATENCY: 276.235 cycles
LLC2 TOTAL     ACCESS: 564943  HIT: 185051  MISS: 379892  HIT %: 32.7557  MISS %: 67.2443  AVERAGE MISS PENALTY: 281.165
LLC2 LOAD      ACCESS:  1503  HIT:   241  MISS:  1262  HIT %: 16.0346  MISS %: 83.9654  AVERAGE MISS PENALTY: 343.275
LLC2 RFO       ACCESS:     0  HIT:     0  MISS:     0  HIT %:     0  MISS %:     0  AVERAGE MISS PENALTY: 0
LLC2 PREFETCH  ACCESS: 433620  HIT: 56765  MISS: 376855  HIT %: 13.091  MISS %: 86.909  AVERAGE MISS PENALTY: 282.281
LLC2 WRITEBACK ACCESS: 129820  HIT: 128045  MISS:  1775  HIT %: 98.6327  MISS %: 1.36728  AVERAGE MISS PENALTY: 0
LLC2 PREFETCH  REQUESTED:     0  ISSUED:     0  USEFUL:     2  USELESS: 376654
 USEFUL LOAD PREFETCHES:          2 PREFETCH ISSUED TO LOWER LEVEL:     376856  ACCURACY: 0.000530707
 TIMELY PREFETCHES:          2 LATE PREFETCHES: 0 DROPPED PREFETCHES: 0
LLC2 AVERAGE MISS LATENCY: 281.165 cycles
LLC3 TOTAL     ACCESS: 565724  HIT: 185558  MISS: 380166  HIT %: 32.8001  MISS %: 67.1999  AVERAGE MISS PENALTY: 282.373
LLC3 LOAD      ACCESS:   911  HIT:   155  MISS:   756  HIT %: 17.0143  MISS %: 82.9857  AVERAGE MISS PENALTY: 327.299
LLC3 RFO       ACCESS:     0  HIT:     0  MISS:     0  HIT %:     0  MISS %:     0  AVERAGE MISS PENALTY: 0
LLC3 PREFETCH  ACCESS: 435010  HIT: 57306  MISS: 377704  HIT %: 13.1735  MISS %: 86.8265  AVERAGE MISS PENALTY: 283.559
LLC3 WRITEBACK ACCESS: 129803  HIT: 128097  MISS:  1706  HIT %: 98.6857  MISS %: 1.3143  AVERAGE MISS PENALTY: 0
LLC3 PREFETCH  REQUESTED:     0  ISSUED:     0  USEFUL:     2  USELESS: 377515
 USEFUL LOAD PREFETCHES:          2 PREFETCH ISSUED TO LOWER LEVEL:     377704  ACCURACY: 0.000529515
 TIMELY PREFETCHES:          2 LATE PREFETCHES: 0 DROPPED PREFETCHES: 0
LLC3 AVERAGE MISS LATENCY: 282.373 cycles
LLC4 TOTAL     ACCESS: 565712  HIT: 185502  MISS: 380210  HIT %: 32.7909  MISS %: 67.2091  AVERAGE MISS PENALTY: 285.155
LLC4 LOAD      ACCESS:    52  HIT:    19  MISS:    33  HIT %: 36.5385  MISS %: 63.4615  AVERAGE MISS PENALTY: 318.212
LLC4 RFO       ACCESS:     0  HIT:     0  MISS:     0  HIT %:     0  MISS %:     0  AVERAGE MISS PENALTY: 0
LLC4 PREFETCH  ACCESS: 435859  HIT: 57410  MISS: 378449  HIT %: 13.1717  MISS %: 86.8283  AVERAGE MISS PENALTY: 286.454
LLC4 WRITEBACK ACCESS: 129801  HIT: 128073  MISS:  1728  HIT %: 98.6687  MISS %: 1.33127  AVERAGE MISS PENALTY: 0
LLC4 PREFETCH  REQUESTED:     0  ISSUED:     0  USEFUL:     2  USELESS: 378337
 USEFUL LOAD PREFETCHES:          2 PREFETCH ISSUED TO LOWER LEVEL:     378450  ACCURACY: 0.000528471
 TIMELY PREFETCHES:          2 LATE PREFETCHES: 0 DROPPED PREFETCHES: 0
LLC4 AVERAGE MISS LATENCY: 285.155 cycles
LLC5 TOTAL     ACCESS: 565760  HIT: 185440  MISS: 380320  HIT %: 32.7771  MISS %: 67.2229  AVERAGE MISS PENALTY: 285.558
LLC5 LOAD      ACCESS:    77  HIT:    49  MISS:    28  HIT %: 63.6364  MISS %: 36.3636  AVERAGE MISS PENALTY: 257.536
LLC5 RFO       ACCESS:     0  HIT:     0  MISS:     0  HIT %:     0  MISS %:     0  AVERAGE MISS PENALTY: 0
LLC5 PREFETCH  ACCESS: 435882  HIT: 57267  MISS: 378615  HIT %: 13.1382  MISS %: 86.8618  AVERAGE MISS PENALTY: 286.825
LLC5 WRITEBACK ACCESS: 129801  HIT: 128124  MISS:  1677  HIT %: 98.708  MISS %: 1.29198  AVERAGE MISS PENALTY: 0
LLC5 PREFETCH  REQUESTED:     0  ISSUED:     0  USEFUL:     1  USELESS: 378465
 USEFUL LOAD PREFETCHES:          1 PREFETCH ISSUED TO LOWER LEVEL:     378615  ACCURACY: 0.000264121
 TIMELY PREFETCHES:          1 LATE PREFETCHES: 0 DROPPED PREFETCHES: 0
LLC5 AVERAGE MISS LATENCY: 285.558 cycles
LLC6 TOTAL     ACCESS: 565775  HIT: 186142  MISS: 379633  HIT %: 32.9004  MISS %: 67.0996  AVERAGE MISS PENALTY: 286.402
LLC6 LOAD      ACCESS:   104  HIT:    81  MISS:    23  HIT %: 77.8846  MISS %: 22.1154  AVERAGE MISS PENALTY: 322.087
LLC6 RFO       ACCESS:     0  HIT:     0  MISS:     0  HIT %:     0  MISS %:     0  AVERAGE MISS PENALTY: 0
LLC6 PREFETCH  ACCESS: 435881  HIT: 57974  MISS: 377907  HIT %: 13.3004  MISS %: 86.6996  AVERAGE MISS PENALTY: 287.691
LLC6 WRITEBACK ACCESS: 129790  HIT: 128087  MISS:  1703  HIT %: 98.6879  MISS %: 1.31212  AVERAGE MISS PENALTY: 0
LLC6 PREFETCH  REQUESTED:     0  ISSUED:     0  USEFUL:     1  USELESS: 377740
 USEFUL LOAD PREFETCHES:          1 PREFETCH ISSUED TO LOWER LEVEL:     377911  ACCURACY: 0.000264613
 TIMELY PREFETCHES:          1 LATE PREFETCHES: 0 DROPPED PREFETCHES: 0
LLC6 AVERAGE MISS LATENCY: 286.402 cycles
LLC7 TOTAL     ACCESS: 565862  HIT: 185729  MISS: 380133  HIT %: 32.8223  MISS %: 67.1777  AVERAGE MISS PENALTY: 289.117
LLC7 LOAD      ACCESS:    40  HIT:    17  MISS:    23  HIT %:  42.5  MISS %:  57.5  AVERAGE MISS PENALTY: 334.478
LLC7 RFO       ACCESS:     0  HIT:     0  MISS:     0  HIT %:     0  MISS %:     0  AVERAGE MISS PENALTY: 0
LLC7 PREFETCH  ACCESS: 436026  HIT: 57587  MISS: 378439  HIT %: 13.2072  MISS %: 86.7928  AVERAGE MISS PENALTY: 290.391
LLC7 WRITEBACK ACCESS: 129796  HIT: 128125  MISS:  1671  HIT %: 98.7126  MISS %: 1.2874  AVERAGE MISS PENALTY: 0
LLC7 PREFETCH  REQUESTED:     0  ISSUED:     0  USEFUL:     5  USELESS: 378249
 USEFUL LOAD PREFETCHES:          5 PREFETCH ISSUED TO LOWER LEVEL:     378439  ACCURACY: 0.00132122
 TIMELY PREFETCHES:          5 LATE PREFETCHES: 0 DROPPED PREFETCHES: 0
LLC7 AVERAGE MISS LATENCY: 289.118 cycles
ROI Average ROB Stall Cycles:	6.29628
ROI Total ROB Stalls Cycles:	75020681
ROI TOTAL ROB counter      :	11915084
ROI Average Load ROB Stall Cycles:	12.5732
ROI Total Load ROB Stalls Cycle  :	27560478
ROI Total Load ROB stalls Counter:	2191999
Major fault: 0 Minor fault: 86810

